none
     RDKit          3D

 20 19  0  0  0  0  0  0  0  0999 V2000
    0.2171    0.1793   -0.0948 C   0  0  0  0  0  0  0  0  0  0  0  0
   -1.1535    0.7436   -0.3630 C   0  0  0  0  0  0  0  0  0  0  0  0
   -1.1645    2.0458   -1.1302 C   0  0  0  0  0  0  0  0  0  0  0  0
   -2.2948    0.1561    0.0229 C   0  0  0  0  0  0  0  0  0  0  0  0
   -3.6029    0.7058   -0.2509 C   0  0  0  0  0  0  0  0  0  0  0  0
   -4.7449    0.1193    0.1365 C   0  0  0  0  0  0  0  0  0  0  0  0
   -4.7824   -1.1332    0.8773 C   0  0  0  0  0  0  0  0  0  0  0  0
   -4.0590   -1.3512    1.9872 C   0  0  0  0  0  0  0  0  0  0  0  0
    0.7414   -0.0104   -1.0371 H   0  0  0  0  0  0  0  0  0  0  0  0
   -1.5367    2.8645   -0.5041 H   0  0  0  0  0  0  0  0  0  0  0  0
   -1.7697    1.9714   -2.0408 H   0  0  0  0  0  0  0  0  0  0  0  0
   -2.2001   -0.8089    0.5084 H   0  0  0  0  0  0  0  0  0  0  0  0
   -3.6840    1.6353   -0.8066 H   0  0  0  0  0  0  0  0  0  0  0  0
   -4.1280   -2.3009    2.5064 H   0  0  0  0  0  0  0  0  0  0  0  0
   -3.4242   -0.5916    2.4352 H   0  0  0  0  0  0  0  0  0  0  0  0
    0.8074    0.8837    0.5005 H   0  0  0  0  0  0  0  0  0  0  0  0
    0.1687   -0.7651    0.4557 H   0  0  0  0  0  0  0  0  0  0  0  0
   -0.1529    2.3180   -1.4511 H   0  0  0  0  0  0  0  0  0  0  0  0
   -5.7035    0.5536   -0.1378 H   0  0  0  0  0  0  0  0  0  0  0  0
   -5.4558   -1.9004    0.5022 H   0  0  0  0  0  0  0  0  0  0  0  0
  1  2  1  0
  2  3  1  0
  2  4  2  0
  4  5  1  0
  5  6  2  0
  6  7  1  0
  7  8  2  0
  1  9  1  0
  1 16  1  0
  1 17  1  0
  3 10  1  0
  3 11  1  0
  3 18  1  0
  4 12  1  0
  5 13  1  0
  6 19  1  0
  7 20  1  0
  8 14  1  0
  8 15  1  0
M  END
