none
     RDKit          3D

 20 19  0  0  0  0  0  0  0  0999 V2000
   -1.1551    0.7415   -0.3609 C   0  0  0  0  0  0  0  0  0  0  0  0
   -2.2931    0.1565    0.0209 C   0  0  0  0  0  0  0  0  0  0  0  0
   -3.6002    0.7066   -0.2510 C   0  0  0  0  0  0  0  0  0  0  0  0
   -4.7478    0.1201    0.1363 C   0  0  0  0  0  0  0  0  0  0  0  0
   -6.0975    0.7051   -0.2114 C   0  0  0  0  0  0  0  0  0  0  0  0
   -4.7793   -1.1345    0.8785 C   0  0  0  0  0  0  0  0  0  0  0  0
   -7.0576   -0.3312   -0.8024 C   0  0  0  0  0  0  0  0  0  0  0  0
   -4.0597   -1.3512    1.9883 C   0  0  0  0  0  0  0  0  0  0  0  0
   -2.1946   -0.8219    0.4817 H   0  0  0  0  0  0  0  0  0  0  0  0
   -3.6357    1.6413   -0.8066 H   0  0  0  0  0  0  0  0  0  0  0  0
   -5.9859    1.5242   -0.9336 H   0  0  0  0  0  0  0  0  0  0  0  0
   -6.5479    1.1393    0.6901 H   0  0  0  0  0  0  0  0  0  0  0  0
   -7.9479    0.1729   -1.1901 H   0  0  0  0  0  0  0  0  0  0  0  0
   -4.1006   -2.3114    2.4892 H   0  0  0  0  0  0  0  0  0  0  0  0
   -3.4486   -0.5791    2.4488 H   0  0  0  0  0  0  0  0  0  0  0  0
   -0.1989    0.2632   -0.1698 H   0  0  0  0  0  0  0  0  0  0  0  0
   -1.1404    1.6993   -0.8692 H   0  0  0  0  0  0  0  0  0  0  0  0
   -5.3920   -1.9432    0.4869 H   0  0  0  0  0  0  0  0  0  0  0  0
   -6.5963   -0.8813   -1.6301 H   0  0  0  0  0  0  0  0  0  0  0  0
   -7.4016   -1.0480   -0.0480 H   0  0  0  0  0  0  0  0  0  0  0  0
  1  2  2  0
  2  3  1  0
  3  4  2  0
  4  5  1  0
  4  6  1  0
  5  7  1  0
  6  8  2  0
  1 16  1  0
  1 17  1  0
  2  9  1  0
  3 10  1  0
  5 11  1  0
  5 12  1  0
  6 18  1  0
  7 13  1  0
  7 19  1  0
  7 20  1  0
  8 14  1  0
  8 15  1  0
M  END
