none
     RDKit          3D

 27 26  0  0  0  0  0  0  0  0999 V2000
    1.2295    1.2788    0.2978 C   0  0  0  0  0  0  0  0  0  0  0  0
    2.4821    0.4103    0.5545 C   0  0  0  0  0  0  0  0  0  0  0  0
    0.2138    0.1833   -0.0965 C   0  0  0  0  0  0  0  0  0  0  0  0
    3.6437    1.0819    1.2729 C   0  0  0  0  0  0  0  0  0  0  0  0
   -1.1548    0.7404   -0.3617 C   0  0  0  0  0  0  0  0  0  0  0  0
    4.8532    0.1392    1.4562 C   0  0  0  0  0  0  0  0  0  0  0  0
    4.0842    2.3325    0.5083 C   0  0  0  0  0  0  0  0  0  0  0  0
   -2.2974    0.1558    0.0260 C   0  0  0  0  0  0  0  0  0  0  0  0
    5.4378   -0.4591    0.1713 C   0  0  0  0  0  0  0  0  0  0  0  0
    2.8181    0.0283   -0.4180 H   0  0  0  0  0  0  0  0  0  0  0  0
    0.5541   -0.3180   -1.0128 H   0  0  0  0  0  0  0  0  0  0  0  0
    3.3096    1.3935    2.2719 H   0  0  0  0  0  0  0  0  0  0  0  0
    4.5580   -0.6881    2.1128 H   0  0  0  0  0  0  0  0  0  0  0  0
    5.6510    0.6779    1.9833 H   0  0  0  0  0  0  0  0  0  0  0  0
    3.3079    3.1037    0.5422 H   0  0  0  0  0  0  0  0  0  0  0  0
    4.9860    2.7666    0.9532 H   0  0  0  0  0  0  0  0  0  0  0  0
    4.2926    2.1177   -0.5451 H   0  0  0  0  0  0  0  0  0  0  0  0
   -2.3016   -0.7735    0.5872 H   0  0  0  0  0  0  0  0  0  0  0  0
    5.7580    0.3177   -0.5285 H   0  0  0  0  0  0  0  0  0  0  0  0
    4.7207   -1.1138   -0.3317 H   0  0  0  0  0  0  0  0  0  0  0  0
    1.3876    2.0001   -0.5139 H   0  0  0  0  0  0  0  0  0  0  0  0
    0.9145    1.8068    1.2050 H   0  0  0  0  0  0  0  0  0  0  0  0
    2.2153   -0.4714    1.1546 H   0  0  0  0  0  0  0  0  0  0  0  0
    0.1421   -0.5819    0.6894 H   0  0  0  0  0  0  0  0  0  0  0  0
   -1.2091    1.6601   -0.9408 H   0  0  0  0  0  0  0  0  0  0  0  0
   -3.2582    0.6007   -0.2152 H   0  0  0  0  0  0  0  0  0  0  0  0
    6.3159   -1.0661    0.4164 H   0  0  0  0  0  0  0  0  0  0  0  0
  1  2  1  0
  1  3  1  0
  2  4  1  0
  3  5  1  0
  4  6  1  0
  4  7  1  0
  5  8  2  3
  6  9  1  0
  1 21  1  0
  1 22  1  0
  2 10  1  0
  2 23  1  0
  3 11  1  0
  3 24  1  0
  4 12  1  0
  5 25  1  0
  6 13  1  0
  6 14  1  0
  7 15  1  0
  7 16  1  0
  7 17  1  0
  8 18  1  0
  8 26  1  0
  9 19  1  0
  9 20  1  0
  9 27  1  0
M  END
