none
     RDKit          3D

 17 16  0  0  0  0  0  0  0  0999 V2000
    2.4790    0.4114    0.5561 C   0  0  0  0  0  0  0  0  0  0  0  0
    3.6498    1.0725    1.2682 C   0  0  0  0  0  0  0  0  0  0  0  0
    4.8541    0.1369    1.4608 C   0  0  0  0  0  0  0  0  0  0  0  0
    5.4355   -0.4583    0.1669 C   0  0  0  0  0  0  0  0  0  0  0  0
    6.5839   -1.4322    0.4249 C   0  0  0  0  0  0  0  0  0  0  0  0
    2.7244    0.1941   -0.4898 H   0  0  0  0  0  0  0  0  0  0  0  0
    3.3092    1.4174    2.2618 H   0  0  0  0  0  0  0  0  0  0  0  0
    4.5572   -0.6792    2.1238 H   0  0  0  0  0  0  0  0  0  0  0  0
    5.6422    0.6949    1.9797 H   0  0  0  0  0  0  0  0  0  0  0  0
    5.7908    0.3501   -0.4792 H   0  0  0  0  0  0  0  0  0  0  0  0
    4.6592   -0.9978   -0.3808 H   0  0  0  0  0  0  0  0  0  0  0  0
    6.2532   -2.2820    1.0335 H   0  0  0  0  0  0  0  0  0  0  0  0
    7.4132   -0.9410    0.9409 H   0  0  0  0  0  0  0  0  0  0  0  0
    1.6087    1.0723    0.5570 H   0  0  0  0  0  0  0  0  0  0  0  0
    2.1963   -0.5252    1.0477 H   0  0  0  0  0  0  0  0  0  0  0  0
    3.9515    1.9683    0.7142 H   0  0  0  0  0  0  0  0  0  0  0  0
    6.9661   -1.8309   -0.5274 H   0  0  0  0  0  0  0  0  0  0  0  0
  1  2  1  0
  2  3  1  0
  3  4  1  0
  4  5  1  0
  1  6  1  0
  1 14  1  0
  1 15  1  0
  2  7  1  0
  2 16  1  0
  3  8  1  0
  3  9  1  0
  4 10  1  0
  4 11  1  0
  5 12  1  0
  5 13  1  0
  5 17  1  0
M  END
