none
     RDKit          3D

 23 22  0  0  0  0  0  0  0  0999 V2000
    1.2304    1.2879    0.2957 C   0  0  0  0  0  0  0  0  0  0  0  0
    2.4778    0.4089    0.5528 C   0  0  0  0  0  0  0  0  0  0  0  0
    1.3940    2.2836   -0.8718 C   0  0  0  0  0  0  0  0  0  0  0  0
    3.6431    1.0797    1.2727 C   0  0  0  0  0  0  0  0  0  0  0  0
    4.8534    0.1395    1.4572 C   0  0  0  0  0  0  0  0  0  0  0  0
    5.4377   -0.4596    0.1697 C   0  0  0  0  0  0  0  0  0  0  0  0
    6.5880   -1.4378    0.4222 C   0  0  0  0  0  0  0  0  0  0  0  0
    2.8005    0.0145   -0.4162 H   0  0  0  0  0  0  0  0  0  0  0  0
    1.6444    1.7576   -1.7995 H   0  0  0  0  0  0  0  0  0  0  0  0
    2.1881    3.0056   -0.6556 H   0  0  0  0  0  0  0  0  0  0  0  0
    3.3153    1.4383    2.2562 H   0  0  0  0  0  0  0  0  0  0  0  0
    4.5575   -0.6791    2.1243 H   0  0  0  0  0  0  0  0  0  0  0  0
    5.6423    0.6951    1.9782 H   0  0  0  0  0  0  0  0  0  0  0  0
    5.7895    0.3486   -0.4821 H   0  0  0  0  0  0  0  0  0  0  0  0
    4.6662   -1.0069   -0.3801 H   0  0  0  0  0  0  0  0  0  0  0  0
    6.2555   -2.2793    1.0389 H   0  0  0  0  0  0  0  0  0  0  0  0
    7.4153   -0.9387    0.9354 H   0  0  0  0  0  0  0  0  0  0  0  0
    0.3872    0.6272    0.0561 H   0  0  0  0  0  0  0  0  0  0  0  0
    0.9631    1.8329    1.2080 H   0  0  0  0  0  0  0  0  0  0  0  0
    2.1601   -0.4541    1.1502 H   0  0  0  0  0  0  0  0  0  0  0  0
    0.4605    2.8366   -1.0285 H   0  0  0  0  0  0  0  0  0  0  0  0
    3.9677    1.9575    0.7039 H   0  0  0  0  0  0  0  0  0  0  0  0
    6.9634   -1.8354   -0.5263 H   0  0  0  0  0  0  0  0  0  0  0  0
  1  2  1  0
  1  3  1  0
  2  4  1  0
  4  5  1  0
  5  6  1  0
  6  7  1  0
  1 18  1  0
  1 19  1  0
  2  8  1  0
  2 20  1  0
  3  9  1  0
  3 10  1  0
  3 21  1  0
  4 11  1  0
  4 22  1  0
  5 12  1  0
  5 13  1  0
  6 14  1  0
  6 15  1  0
  7 16  1  0
  7 17  1  0
  7 23  1  0
M  END
