none
     RDKit          3D

 29 28  0  0  0  0  0  0  0  0999 V2000
    1.2301    1.2812    0.2998 C   0  0  0  0  0  0  0  0  0  0  0  0
    2.4823    0.4106    0.5546 C   0  0  0  0  0  0  0  0  0  0  0  0
    0.2143    0.1846   -0.0957 C   0  0  0  0  0  0  0  0  0  0  0  0
    3.6439    1.0796    1.2735 C   0  0  0  0  0  0  0  0  0  0  0  0
    0.8121    2.0636    1.5688 C   0  0  0  0  0  0  0  0  0  0  0  0
    4.8537    0.1396    1.4569 C   0  0  0  0  0  0  0  0  0  0  0  0
    5.4377   -0.4592    0.1688 C   0  0  0  0  0  0  0  0  0  0  0  0
    6.5897   -1.4392    0.4215 C   0  0  0  0  0  0  0  0  0  0  0  0
    7.2202   -1.9852   -0.8715 C   0  0  0  0  0  0  0  0  0  0  0  0
    2.8189    0.0441   -0.4225 H   0  0  0  0  0  0  0  0  0  0  0  0
    0.5550   -0.3896   -0.9663 H   0  0  0  0  0  0  0  0  0  0  0  0
    3.3339    1.4200    2.2685 H   0  0  0  0  0  0  0  0  0  0  0  0
   -0.1626    2.5370    1.4149 H   0  0  0  0  0  0  0  0  0  0  0  0
    0.7333    1.3982    2.4356 H   0  0  0  0  0  0  0  0  0  0  0  0
    1.5336    2.8550    1.7986 H   0  0  0  0  0  0  0  0  0  0  0  0
    4.5579   -0.6792    2.1245 H   0  0  0  0  0  0  0  0  0  0  0  0
    5.6424    0.6952    1.9789 H   0  0  0  0  0  0  0  0  0  0  0  0
    5.7843    0.3551   -0.4778 H   0  0  0  0  0  0  0  0  0  0  0  0
    4.6631   -1.0003   -0.3833 H   0  0  0  0  0  0  0  0  0  0  0  0
    6.2276   -2.2825    1.0214 H   0  0  0  0  0  0  0  0  0  0  0  0
    7.3711   -0.9403    1.0063 H   0  0  0  0  0  0  0  0  0  0  0  0
    8.0345   -2.6764   -0.6309 H   0  0  0  0  0  0  0  0  0  0  0  0
    1.3960    1.9761   -0.5338 H   0  0  0  0  0  0  0  0  0  0  0  0
    2.2140   -0.4786    1.1435 H   0  0  0  0  0  0  0  0  0  0  0  0
    0.0179   -0.5118    0.7294 H   0  0  0  0  0  0  0  0  0  0  0  0
   -0.7395    0.6473   -0.3622 H   0  0  0  0  0  0  0  0  0  0  0  0
    3.9596    1.9651    0.7112 H   0  0  0  0  0  0  0  0  0  0  0  0
    7.6279   -1.1702   -1.4779 H   0  0  0  0  0  0  0  0  0  0  0  0
    6.4764   -2.5232   -1.4677 H   0  0  0  0  0  0  0  0  0  0  0  0
  1  2  1  0
  1  3  1  0
  1  5  1  0
  2  4  1  0
  4  6  1  0
  6  7  1  0
  7  8  1  0
  8  9  1  0
  1 23  1  0
  2 10  1  0
  2 24  1  0
  3 11  1  0
  3 25  1  0
  3 26  1  0
  4 12  1  0
  4 27  1  0
  5 13  1  0
  5 14  1  0
  5 15  1  0
  6 16  1  0
  6 17  1  0
  7 18  1  0
  7 19  1  0
  8 20  1  0
  8 21  1  0
  9 22  1  0
  9 28  1  0
  9 29  1  0
M  END
