none
     RDKit          3D

 23 22  0  0  0  0  0  0  0  0999 V2000
    0.2176    0.1847   -0.0988 C   0  0  0  0  0  0  0  0  0  0  0  0
    1.9317   -0.8257    1.3146 C   0  0  0  0  0  0  0  0  0  0  0  0
    0.4403   -0.8916    0.9671 C   0  0  0  0  0  0  0  0  0  0  0  0
   -1.1547    0.7352   -0.3572 C   0  0  0  0  0  0  0  0  0  0  0  0
   -2.2920    0.1583    0.0171 C   0  0  0  0  0  0  0  0  0  0  0  0
   -3.6020    0.7061   -0.2515 C   0  0  0  0  0  0  0  0  0  0  0  0
   -4.7433    0.1174    0.1383 C   0  0  0  0  0  0  0  0  0  0  0  0
   -4.7857   -1.1328    0.8764 C   0  0  0  0  0  0  0  0  0  0  0  0
   -4.0648   -1.3556    1.9881 C   0  0  0  0  0  0  0  0  0  0  0  0
    0.6222   -0.1867   -1.0445 H   0  0  0  0  0  0  0  0  0  0  0  0
    2.5263   -1.2939    0.5201 H   0  0  0  0  0  0  0  0  0  0  0  0
    2.1274   -1.3814    2.2343 H   0  0  0  0  0  0  0  0  0  0  0  0
    0.1428   -1.8909    0.6124 H   0  0  0  0  0  0  0  0  0  0  0  0
   -0.1379   -0.6692    1.8657 H   0  0  0  0  0  0  0  0  0  0  0  0
   -2.2194   -0.8182    0.4828 H   0  0  0  0  0  0  0  0  0  0  0  0
   -3.6481    1.6312   -0.8172 H   0  0  0  0  0  0  0  0  0  0  0  0
   -4.1158   -2.3024    2.5082 H   0  0  0  0  0  0  0  0  0  0  0  0
   -3.4234   -0.5921    2.4209 H   0  0  0  0  0  0  0  0  0  0  0  0
    0.8330    1.0542    0.1734 H   0  0  0  0  0  0  0  0  0  0  0  0
    2.2956    0.2112    1.4555 H   0  0  0  0  0  0  0  0  0  0  0  0
   -1.1899    1.6843   -0.8856 H   0  0  0  0  0  0  0  0  0  0  0  0
   -5.7033    0.5479   -0.1485 H   0  0  0  0  0  0  0  0  0  0  0  0
   -5.4722   -1.8911    0.4974 H   0  0  0  0  0  0  0  0  0  0  0  0
  1  3  1  0
  1  4  1  0
  2  3  1  0
  4  5  2  0
  5  6  1  0
  6  7  2  0
  7  8  1  0
  8  9  2  0
  1 10  1  0
  1 19  1  0
  2 11  1  0
  2 12  1  0
  2 20  1  0
  3 13  1  0
  3 14  1  0
  4 21  1  0
  5 15  1  0
  6 16  1  0
  7 22  1  0
  8 23  1  0
  9 17  1  0
  9 18  1  0
M  END
