none
     RDKit          3D

 25 24  0  0  0  0  0  0  0  0999 V2000
    0.2174    0.1783   -0.0936 C   0  0  0  0  0  0  0  0  0  0  0  0
    1.9317   -0.8207    1.3142 C   0  0  0  0  0  0  0  0  0  0  0  0
    0.4366   -0.8992    0.9684 C   0  0  0  0  0  0  0  0  0  0  0  0
   -1.1543    0.7401   -0.3619 C   0  0  0  0  0  0  0  0  0  0  0  0
    0.1733    2.3418   -1.8187 C   0  0  0  0  0  0  0  0  0  0  0  0
   -1.1626    2.0458   -1.1310 C   0  0  0  0  0  0  0  0  0  0  0  0
   -2.2982    0.1543    0.0255 C   0  0  0  0  0  0  0  0  0  0  0  0
   -3.6041    0.7061   -0.2497 C   0  0  0  0  0  0  0  0  0  0  0  0
   -4.7460    0.1227    0.1338 C   0  0  0  0  0  0  0  0  0  0  0  0
    0.6422   -0.1918   -1.0331 H   0  0  0  0  0  0  0  0  0  0  0  0
    2.5287   -1.2628    0.4979 H   0  0  0  0  0  0  0  0  0  0  0  0
    2.1478   -1.3945    2.2287 H   0  0  0  0  0  0  0  0  0  0  0  0
    0.1543   -1.9082    0.6177 H   0  0  0  0  0  0  0  0  0  0  0  0
   -0.1358   -0.6627    1.8695 H   0  0  0  0  0  0  0  0  0  0  0  0
    0.4953    1.5274   -2.4720 H   0  0  0  0  0  0  0  0  0  0  0  0
    0.0436    3.2177   -2.4592 H   0  0  0  0  0  0  0  0  0  0  0  0
   -1.4053    2.8679   -0.4491 H   0  0  0  0  0  0  0  0  0  0  0  0
   -1.9157    2.0245   -1.9270 H   0  0  0  0  0  0  0  0  0  0  0  0
   -2.2592   -0.7967    0.5555 H   0  0  0  0  0  0  0  0  0  0  0  0
   -3.6865    1.6674   -0.7504 H   0  0  0  0  0  0  0  0  0  0  0  0
    0.8259    1.0303    0.2283 H   0  0  0  0  0  0  0  0  0  0  0  0
    2.2835    0.2152    1.4972 H   0  0  0  0  0  0  0  0  0  0  0  0
    0.9774    2.5891   -1.1204 H   0  0  0  0  0  0  0  0  0  0  0  0
   -5.7104    0.5950   -0.0636 H   0  0  0  0  0  0  0  0  0  0  0  0
   -4.7625   -0.8168    0.6623 H   0  0  0  0  0  0  0  0  0  0  0  0
  1  3  1  0
  1  4  1  0
  2  3  1  0
  4  6  1  0
  4  7  2  0
  5  6  1  0
  7  8  1  0
  8  9  2  0
  1 10  1  0
  1 21  1  0
  2 11  1  0
  2 12  1  0
  2 22  1  0
  3 13  1  0
  3 14  1  0
  5 15  1  0
  5 16  1  0
  5 23  1  0
  6 17  1  0
  6 18  1  0
  7 19  1  0
  8 20  1  0
  9 24  1  0
  9 25  1  0
M  END
