none
     RDKit          3D

 29 28  0  0  0  0  0  0  0  0999 V2000
    1.2276    1.2775    0.2966 C   0  0  0  0  0  0  0  0  0  0  0  0
    2.4878    0.4128    0.5564 C   0  0  0  0  0  0  0  0  0  0  0  0
    0.2068    0.1823   -0.0871 C   0  0  0  0  0  0  0  0  0  0  0  0
    1.3938    2.2814   -0.8782 C   0  0  0  0  0  0  0  0  0  0  0  0
    3.6482    1.0806    1.2706 C   0  0  0  0  0  0  0  0  0  0  0  0
    0.8088    2.0588    1.5673 C   0  0  0  0  0  0  0  0  0  0  0  0
    0.1794    2.3469   -1.8167 C   0  0  0  0  0  0  0  0  0  0  0  0
    4.8540    0.1399    1.4560 C   0  0  0  0  0  0  0  0  0  0  0  0
    5.4353   -0.4559    0.1729 C   0  0  0  0  0  0  0  0  0  0  0  0
    2.8279    0.0110   -0.4070 H   0  0  0  0  0  0  0  0  0  0  0  0
    0.5119   -0.3582   -1.0016 H   0  0  0  0  0  0  0  0  0  0  0  0
    2.2619    2.0055   -1.4847 H   0  0  0  0  0  0  0  0  0  0  0  0
    1.6054    3.2929   -0.4993 H   0  0  0  0  0  0  0  0  0  0  0  0
    3.3349    1.4198    2.2687 H   0  0  0  0  0  0  0  0  0  0  0  0
   -0.1598    2.5473    1.4232 H   0  0  0  0  0  0  0  0  0  0  0  0
    0.7192    1.3883    2.4281 H   0  0  0  0  0  0  0  0  0  0  0  0
    1.5361    2.8450    1.8257 H   0  0  0  0  0  0  0  0  0  0  0  0
    0.0355    1.4088   -2.3735 H   0  0  0  0  0  0  0  0  0  0  0  0
    0.3353    3.1289   -2.5593 H   0  0  0  0  0  0  0  0  0  0  0  0
    4.5756   -0.6801    2.1286 H   0  0  0  0  0  0  0  0  0  0  0  0
    5.6458    0.7048    1.9630 H   0  0  0  0  0  0  0  0  0  0  0  0
    5.6636    0.3276   -0.5557 H   0  0  0  0  0  0  0  0  0  0  0  0
    4.7464   -1.1722   -0.2870 H   0  0  0  0  0  0  0  0  0  0  0  0
    2.2124   -0.4637    1.1654 H   0  0  0  0  0  0  0  0  0  0  0  0
    0.1075   -0.5623    0.7072 H   0  0  0  0  0  0  0  0  0  0  0  0
   -0.7922    0.5835   -0.2364 H   0  0  0  0  0  0  0  0  0  0  0  0
    3.9626    1.9652    0.7132 H   0  0  0  0  0  0  0  0  0  0  0  0
   -0.7403    2.5900   -1.2725 H   0  0  0  0  0  0  0  0  0  0  0  0
    6.3652   -0.9945    0.3960 H   0  0  0  0  0  0  0  0  0  0  0  0
  1  2  1  0
  1  3  1  0
  1  4  1  0
  1  6  1  0
  2  5  1  0
  4  7  1  0
  5  8  1  0
  8  9  1  0
  2 10  1  0
  2 24  1  0
  3 11  1  0
  3 25  1  0
  3 26  1  0
  4 12  1  0
  4 13  1  0
  5 14  1  0
  5 27  1  0
  6 15  1  0
  6 16  1  0
  6 17  1  0
  7 18  1  0
  7 19  1  0
  7 28  1  0
  8 20  1  0
  8 21  1  0
  9 22  1  0
  9 23  1  0
  9 29  1  0
M  END
