none
     RDKit          3D

 25 24  0  0  0  0  0  0  0  0999 V2000
    1.2267    1.2768    0.2946 C   0  0  0  0  0  0  0  0  0  0  0  0
    2.4878    0.4227    0.5560 C   0  0  0  0  0  0  0  0  0  0  0  0
    0.2060    0.1875   -0.0957 C   0  0  0  0  0  0  0  0  0  0  0  0
    1.4020    2.2843   -0.8709 C   0  0  0  0  0  0  0  0  0  0  0  0
   -1.1591    0.7370   -0.3640 C   0  0  0  0  0  0  0  0  0  0  0  0
    0.8163    2.0604    1.5689 C   0  0  0  0  0  0  0  0  0  0  0  0
   -2.2982    0.1541    0.0273 C   0  0  0  0  0  0  0  0  0  0  0  0
   -3.6035    0.7059   -0.2526 C   0  0  0  0  0  0  0  0  0  0  0  0
   -4.7431    0.1230    0.1365 C   0  0  0  0  0  0  0  0  0  0  0  0
    2.7873   -0.1427   -0.3413 H   0  0  0  0  0  0  0  0  0  0  0  0
    0.5466   -0.3232   -1.0115 H   0  0  0  0  0  0  0  0  0  0  0  0
    1.6484    1.7665   -1.8053 H   0  0  0  0  0  0  0  0  0  0  0  0
    2.2198    2.9785   -0.6616 H   0  0  0  0  0  0  0  0  0  0  0  0
   -0.0915    2.6568    1.4044 H   0  0  0  0  0  0  0  0  0  0  0  0
    0.6207    1.3743    2.4003 H   0  0  0  0  0  0  0  0  0  0  0  0
    1.6147    2.7478    1.8777 H   0  0  0  0  0  0  0  0  0  0  0  0
   -2.2624   -0.7681    0.5989 H   0  0  0  0  0  0  0  0  0  0  0  0
   -3.6536    1.6441   -0.8025 H   0  0  0  0  0  0  0  0  0  0  0  0
    2.3212   -0.2959    1.3747 H   0  0  0  0  0  0  0  0  0  0  0  0
    3.3284    1.0484    0.8383 H   0  0  0  0  0  0  0  0  0  0  0  0
    0.1493   -0.5831    0.6901 H   0  0  0  0  0  0  0  0  0  0  0  0
    0.5024    2.8987   -1.0417 H   0  0  0  0  0  0  0  0  0  0  0  0
   -1.2176    1.6376   -0.9681 H   0  0  0  0  0  0  0  0  0  0  0  0
   -5.7020    0.5760   -0.0978 H   0  0  0  0  0  0  0  0  0  0  0  0
   -4.7598   -0.8118    0.6889 H   0  0  0  0  0  0  0  0  0  0  0  0
  1  2  1  0
  1  3  1  0
  1  4  1  0
  1  6  1  0
  3  5  1  0
  5  7  2  0
  7  8  1  0
  8  9  2  0
  2 10  1  0
  2 19  1  0
  2 20  1  0
  3 11  1  0
  3 21  1  0
  4 12  1  0
  4 13  1  0
  4 22  1  0
  5 23  1  0
  6 14  1  0
  6 15  1  0
  6 16  1  0
  7 17  1  0
  8 18  1  0
  9 24  1  0
  9 25  1  0
M  END
