none
     RDKit          3D

 15 14  0  0  0  0  0  0  0  0999 V2000
    1.2154    1.3166    0.2730 C   0  0  0  0  0  0  0  0  0  0  0  0
    0.2794    0.1844   -0.0973 C   0  0  0  0  0  0  0  0  0  0  0  0
    0.3930   -0.9226    0.9582 C   0  0  0  0  0  0  0  0  0  0  0  0
   -1.1342    0.7085   -0.3316 C   0  0  0  0  0  0  0  0  0  0  0  0
   -2.2941    0.1592    0.0489 C   0  0  0  0  0  0  0  0  0  0  0  0
    0.6007   -0.2321   -1.0564 H   0  0  0  0  0  0  0  0  0  0  0  0
   -0.1794   -1.8090    0.7130 H   0  0  0  0  0  0  0  0  0  0  0  0
    0.1011   -0.5626    1.9528 H   0  0  0  0  0  0  0  0  0  0  0  0
   -2.3283   -0.7723    0.5995 H   0  0  0  0  0  0  0  0  0  0  0  0
    2.2480    0.9278    0.3501 H   0  0  0  0  0  0  0  0  0  0  0  0
    1.2242    2.1133   -0.4681 H   0  0  0  0  0  0  0  0  0  0  0  0
    0.9661    1.7486    1.2521 H   0  0  0  0  0  0  0  0  0  0  0  0
    1.4530   -1.2289    1.0338 H   0  0  0  0  0  0  0  0  0  0  0  0
   -1.1951    1.6307   -0.9268 H   0  0  0  0  0  0  0  0  0  0  0  0
   -3.2380    0.6118   -0.2179 H   0  0  0  0  0  0  0  0  0  0  0  0
  1  2  1  0
  2  3  1  0
  2  4  1  0
  4  5  2  3
  1 10  1  0
  1 11  1  0
  1 12  1  0
  2  6  1  0
  3  7  1  0
  3  8  1  0
  3 13  1  0
  4 14  1  0
  5  9  1  0
  5 15  1  0
M  END
