none
     RDKit          3D

 23 22  0  0  0  0  0  0  0  0999 V2000
    1.2286    1.2841    0.2970 C   0  0  0  0  0  0  0  0  0  0  0  0
    0.2192    0.1814   -0.0943 C   0  0  0  0  0  0  0  0  0  0  0  0
   -1.1545    0.7443   -0.3634 C   0  0  0  0  0  0  0  0  0  0  0  0
   -1.1648    2.0461   -1.1317 C   0  0  0  0  0  0  0  0  0  0  0  0
   -2.2949    0.1563    0.0228 C   0  0  0  0  0  0  0  0  0  0  0  0
   -3.6035    0.7056   -0.2502 C   0  0  0  0  0  0  0  0  0  0  0  0
   -4.7449    0.1190    0.1367 C   0  0  0  0  0  0  0  0  0  0  0  0
   -4.7824   -1.1332    0.8773 C   0  0  0  0  0  0  0  0  0  0  0  0
   -4.0591   -1.3512    1.9872 C   0  0  0  0  0  0  0  0  0  0  0  0
    0.5842   -0.3292   -0.9935 H   0  0  0  0  0  0  0  0  0  0  0  0
   -1.0416    2.8952   -0.4508 H   0  0  0  0  0  0  0  0  0  0  0  0
   -2.0566    2.2093   -1.7402 H   0  0  0  0  0  0  0  0  0  0  0  0
   -2.2004   -0.8099    0.5066 H   0  0  0  0  0  0  0  0  0  0  0  0
   -3.7071    1.6435   -0.7840 H   0  0  0  0  0  0  0  0  0  0  0  0
   -4.1281   -2.3013    2.5057 H   0  0  0  0  0  0  0  0  0  0  0  0
   -3.4246   -0.5912    2.4353 H   0  0  0  0  0  0  0  0  0  0  0  0
    2.1669    0.8201    0.6177 H   0  0  0  0  0  0  0  0  0  0  0  0
    1.4679    1.9443   -0.5433 H   0  0  0  0  0  0  0  0  0  0  0  0
    0.8525    1.8911    1.1271 H   0  0  0  0  0  0  0  0  0  0  0  0
    0.1798   -0.5609    0.7113 H   0  0  0  0  0  0  0  0  0  0  0  0
   -0.3458    2.0616   -1.8591 H   0  0  0  0  0  0  0  0  0  0  0  0
   -5.7038    0.5570   -0.1301 H   0  0  0  0  0  0  0  0  0  0  0  0
   -5.4563   -1.8996    0.5030 H   0  0  0  0  0  0  0  0  0  0  0  0
  1  2  1  0
  2  3  1  0
  3  4  1  0
  3  5  2  0
  5  6  1  0
  6  7  2  0
  7  8  1  0
  8  9  2  0
  1 17  1  0
  1 18  1  0
  1 19  1  0
  2 10  1  0
  2 20  1  0
  4 11  1  0
  4 12  1  0
  4 21  1  0
  5 13  1  0
  6 14  1  0
  7 22  1  0
  8 23  1  0
  9 15  1  0
  9 16  1  0
M  END
