none
     RDKit          3D

 23 22  0  0  0  0  0  0  0  0999 V2000
    2.4772    0.4117    0.5625 C   0  0  0  0  0  0  0  0  0  0  0  0
    1.9168   -0.8023    1.3000 C   0  0  0  0  0  0  0  0  0  0  0  0
    0.4385   -0.9122    0.9749 C   0  0  0  0  0  0  0  0  0  0  0  0
    3.6568    1.0683    1.2678 C   0  0  0  0  0  0  0  0  0  0  0  0
    4.8581    0.1382    1.4630 C   0  0  0  0  0  0  0  0  0  0  0  0
    5.4349   -0.4606    0.1682 C   0  0  0  0  0  0  0  0  0  0  0  0
    6.5858   -1.4303    0.4264 C   0  0  0  0  0  0  0  0  0  0  0  0
    2.7476    0.1287   -0.4693 H   0  0  0  0  0  0  0  0  0  0  0  0
    2.4515   -1.7271    1.0014 H   0  0  0  0  0  0  0  0  0  0  0  0
    2.0406   -0.7042    2.3944 H   0  0  0  0  0  0  0  0  0  0  0  0
    0.0086   -1.8127    1.4033 H   0  0  0  0  0  0  0  0  0  0  0  0
   -0.1067   -0.0412    1.3763 H   0  0  0  0  0  0  0  0  0  0  0  0
    3.3189    1.4396    2.2573 H   0  0  0  0  0  0  0  0  0  0  0  0
    4.5753   -0.6767    2.1338 H   0  0  0  0  0  0  0  0  0  0  0  0
    5.6440    0.7038    1.9698 H   0  0  0  0  0  0  0  0  0  0  0  0
    5.7925    0.3507   -0.4760 H   0  0  0  0  0  0  0  0  0  0  0  0
    4.6618   -0.9999   -0.3817 H   0  0  0  0  0  0  0  0  0  0  0  0
    6.2672   -2.2838    1.0389 H   0  0  0  0  0  0  0  0  0  0  0  0
    7.4100   -0.9290    0.9363 H   0  0  0  0  0  0  0  0  0  0  0  0
    1.6955    1.1716    0.4585 H   0  0  0  0  0  0  0  0  0  0  0  0
    0.2748   -0.9311   -0.1140 H   0  0  0  0  0  0  0  0  0  0  0  0
    3.9585    1.9592    0.7035 H   0  0  0  0  0  0  0  0  0  0  0  0
    6.9703   -1.8228   -0.5286 H   0  0  0  0  0  0  0  0  0  0  0  0
  1  2  1  0
  1  4  1  0
  2  3  1  0
  4  5  1  0
  5  6  1  0
  6  7  1  0
  1  8  1  0
  1 20  1  0
  2  9  1  0
  2 10  1  0
  3 11  1  0
  3 12  1  0
  3 21  1  0
  4 13  1  0
  4 22  1  0
  5 14  1  0
  5 15  1  0
  6 16  1  0
  6 17  1  0
  7 18  1  0
  7 19  1  0
  7 23  1  0
M  END
