none
     RDKit          3D

 20 19  0  0  0  0  0  0  0  0999 V2000
    1.2386    1.2925    0.2934 C   0  0  0  0  0  0  0  0  0  0  0  0
    2.4683    0.4046    0.5469 C   0  0  0  0  0  0  0  0  0  0  0  0
    1.3971    2.2756   -0.8617 C   0  0  0  0  0  0  0  0  0  0  0  0
    3.6464    1.0811    1.2658 C   0  0  0  0  0  0  0  0  0  0  0  0
    4.8528    0.1398    1.4575 C   0  0  0  0  0  0  0  0  0  0  0  0
    5.4329   -0.4526    0.1751 C   0  0  0  0  0  0  0  0  0  0  0  0
    2.8080    0.0062   -0.4109 H   0  0  0  0  0  0  0  0  0  0  0  0
    1.6423    1.7556   -1.7985 H   0  0  0  0  0  0  0  0  0  0  0  0
    2.1888    3.0041   -0.6578 H   0  0  0  0  0  0  0  0  0  0  0  0
    3.3134    1.4318    2.2586 H   0  0  0  0  0  0  0  0  0  0  0  0
    4.5734   -0.6804    2.1273 H   0  0  0  0  0  0  0  0  0  0  0  0
    5.6452    0.7041    1.9646 H   0  0  0  0  0  0  0  0  0  0  0  0
    5.6630    0.3272   -0.5564 H   0  0  0  0  0  0  0  0  0  0  0  0
    4.7459   -1.1724   -0.2860 H   0  0  0  0  0  0  0  0  0  0  0  0
    0.3872    0.6271    0.0570 H   0  0  0  0  0  0  0  0  0  0  0  0
    0.9645    1.8322    1.2087 H   0  0  0  0  0  0  0  0  0  0  0  0
    2.1587   -0.4513    1.1552 H   0  0  0  0  0  0  0  0  0  0  0  0
    0.4616    2.8364   -1.0278 H   0  0  0  0  0  0  0  0  0  0  0  0
    3.9647    1.9613    0.7093 H   0  0  0  0  0  0  0  0  0  0  0  0
    6.3651   -0.9941    0.3962 H   0  0  0  0  0  0  0  0  0  0  0  0
  1  2  1  0
  1  3  1  0
  2  4  1  0
  4  5  1  0
  5  6  1  0
  1 15  1  0
  1 16  1  0
  2  7  1  0
  2 17  1  0
  3  8  1  0
  3  9  1  0
  3 18  1  0
  4 10  1  0
  4 19  1  0
  5 11  1  0
  5 12  1  0
  6 13  1  0
  6 14  1  0
  6 20  1  0
M  END
