none
     RDKit          3D

 17 16  0  0  0  0  0  0  0  0999 V2000
    1.2171    1.2932    0.2711 C   0  0  0  0  0  0  0  0  0  0  0  0
    0.2360    0.1511   -0.0329 C   0  0  0  0  0  0  0  0  0  0  0  0
    1.3845    2.2801   -0.8967 C   0  0  0  0  0  0  0  0  0  0  0  0
    0.7949    2.0349    1.5476 C   0  0  0  0  0  0  0  0  0  0  0  0
    0.1842    2.3938   -1.8357 C   0  0  0  0  0  0  0  0  0  0  0  0
    0.5159   -0.3737   -0.9571 H   0  0  0  0  0  0  0  0  0  0  0  0
    2.2419    1.9611   -1.4970 H   0  0  0  0  0  0  0  0  0  0  0  0
    1.6417    3.2806   -0.5181 H   0  0  0  0  0  0  0  0  0  0  0  0
   -0.1594    2.5561    1.4044 H   0  0  0  0  0  0  0  0  0  0  0  0
    0.6840    1.3473    2.3866 H   0  0  0  0  0  0  0  0  0  0  0  0
    1.5444    2.7848    1.8320 H   0  0  0  0  0  0  0  0  0  0  0  0
    0.0220    1.4593   -2.3879 H   0  0  0  0  0  0  0  0  0  0  0  0
    0.3667    3.1742   -2.5692 H   0  0  0  0  0  0  0  0  0  0  0  0
    2.1988    0.8408    0.4792 H   0  0  0  0  0  0  0  0  0  0  0  0
    0.2350   -0.5708    0.7735 H   0  0  0  0  0  0  0  0  0  0  0  0
   -0.7943    0.5201   -0.1511 H   0  0  0  0  0  0  0  0  0  0  0  0
   -0.7300    2.6414   -1.2894 H   0  0  0  0  0  0  0  0  0  0  0  0
  1  2  1  0
  1  3  1  0
  1  4  1  0
  3  5  1  0
  1 14  1  0
  2  6  1  0
  2 15  1  0
  2 16  1  0
  3  7  1  0
  3  8  1  0
  4  9  1  0
  4 10  1  0
  4 11  1  0
  5 12  1  0
  5 13  1  0
  5 17  1  0
M  END
