none
     RDKit          3D

 27 27  0  0  0  0  0  0  0  0999 V2000
    1.2301    1.2878    0.2938 C   0  0  0  0  0  0  0  0  0  0  0  0
    2.4795    0.4059    0.5515 C   0  0  0  0  0  0  0  0  0  0  0  0
    0.2142    0.1860   -0.0819 C   0  0  0  0  0  0  0  0  0  0  0  0
    1.9265   -0.8190    1.3108 C   0  0  0  0  0  0  0  0  0  0  0  0
    0.4398   -0.9012    0.9609 C   0  0  0  0  0  0  0  0  0  0  0  0
    1.3974    2.2786   -0.8679 C   0  0  0  0  0  0  0  0  0  0  0  0
    3.6535    1.0767    1.2793 C   0  0  0  0  0  0  0  0  0  0  0  0
    0.8070    2.0647    1.5631 C   0  0  0  0  0  0  0  0  0  0  0  0
    4.8467    0.1472    1.4520 C   0  0  0  0  0  0  0  0  0  0  0  0
    2.8531    0.0540   -0.4185 H   0  0  0  0  0  0  0  0  0  0  0  0
    0.4393   -0.2245   -1.0895 H   0  0  0  0  0  0  0  0  0  0  0  0
    2.4529   -1.7290    1.0002 H   0  0  0  0  0  0  0  0  0  0  0  0
    2.0532   -0.7233    2.3967 H   0  0  0  0  0  0  0  0  0  0  0  0
    0.1564   -1.8921    0.5946 H   0  0  0  0  0  0  0  0  0  0  0  0
   -0.1718   -0.7011    1.8576 H   0  0  0  0  0  0  0  0  0  0  0  0
    1.7346    1.7752   -1.7821 H   0  0  0  0  0  0  0  0  0  0  0  0
    2.1314    3.0564   -0.6290 H   0  0  0  0  0  0  0  0  0  0  0  0
    3.3416    1.4276    2.2693 H   0  0  0  0  0  0  0  0  0  0  0  0
   -0.1745    2.5198    1.4299 H   0  0  0  0  0  0  0  0  0  0  0  0
    0.7558    1.4285    2.4590 H   0  0  0  0  0  0  0  0  0  0  0  0
    1.5167    2.8758    1.7872 H   0  0  0  0  0  0  0  0  0  0  0  0
    4.6061   -0.7089    2.0978 H   0  0  0  0  0  0  0  0  0  0  0  0
    5.6795    0.6871    1.9208 H   0  0  0  0  0  0  0  0  0  0  0  0
   -0.8166    0.5392   -0.0960 H   0  0  0  0  0  0  0  0  0  0  0  0
    0.4432    2.7800   -1.1008 H   0  0  0  0  0  0  0  0  0  0  0  0
    3.9682    1.9596    0.7105 H   0  0  0  0  0  0  0  0  0  0  0  0
    5.1964   -0.2398    0.4885 H   0  0  0  0  0  0  0  0  0  0  0  0
  1  2  1  0
  1  3  1  0
  1  6  1  0
  1  8  1  0
  2  4  1  0
  2  7  1  0
  3  5  1  0
  4  5  1  0
  7  9  1  0
  2 10  1  0
  3 11  1  0
  3 24  1  0
  4 12  1  0
  4 13  1  0
  5 14  1  0
  5 15  1  0
  6 16  1  0
  6 17  1  0
  6 25  1  0
  7 18  1  0
  7 26  1  0
  8 19  1  0
  8 20  1  0
  8 21  1  0
  9 22  1  0
  9 23  1  0
  9 27  1  0
M  END
