none
     RDKit          3D

 22 21  0  0  0  0  0  0  0  0999 V2000
    1.2319    1.2607    0.2962 C   0  0  0  0  0  0  0  0  0  0  0  0
    2.4867    0.4247    0.5573 C   0  0  0  0  0  0  0  0  0  0  0  0
    0.2071    0.1886   -0.0977 C   0  0  0  0  0  0  0  0  0  0  0  0
   -1.1541    0.7423   -0.3630 C   0  0  0  0  0  0  0  0  0  0  0  0
   -2.2969    0.1547    0.0289 C   0  0  0  0  0  0  0  0  0  0  0  0
   -3.6010    0.7057   -0.2525 C   0  0  0  0  0  0  0  0  0  0  0  0
   -4.7494    0.1264    0.1316 C   0  0  0  0  0  0  0  0  0  0  0  0
   -6.0934    0.7033   -0.2082 C   0  0  0  0  0  0  0  0  0  0  0  0
    2.7854   -0.1390   -0.3417 H   0  0  0  0  0  0  0  0  0  0  0  0
    0.5531   -0.3163   -1.0143 H   0  0  0  0  0  0  0  0  0  0  0  0
   -2.2608   -0.7788    0.5837 H   0  0  0  0  0  0  0  0  0  0  0  0
   -3.6336    1.6358   -0.8178 H   0  0  0  0  0  0  0  0  0  0  0  0
   -6.0135    1.6266   -0.7964 H   0  0  0  0  0  0  0  0  0  0  0  0
   -6.6459    0.9299    0.7088 H   0  0  0  0  0  0  0  0  0  0  0  0
    1.4006    1.9929   -0.5176 H   0  0  0  0  0  0  0  0  0  0  0  0
    0.9268    1.8155    1.2024 H   0  0  0  0  0  0  0  0  0  0  0  0
    2.3213   -0.2989    1.3726 H   0  0  0  0  0  0  0  0  0  0  0  0
    3.3156    1.0608    0.8426 H   0  0  0  0  0  0  0  0  0  0  0  0
    0.1546   -0.5833    0.6895 H   0  0  0  0  0  0  0  0  0  0  0  0
   -1.1909    1.6638   -0.9366 H   0  0  0  0  0  0  0  0  0  0  0  0
   -4.7427   -0.8069    0.6974 H   0  0  0  0  0  0  0  0  0  0  0  0
   -6.6734   -0.0205   -0.7910 H   0  0  0  0  0  0  0  0  0  0  0  0
  1  2  1  0
  1  3  1  0
  3  4  1  0
  4  5  2  0
  5  6  1  0
  6  7  2  0
  7  8  1  0
  1 15  1  0
  1 16  1  0
  2  9  1  0
  2 17  1  0
  2 18  1  0
  3 10  1  0
  3 19  1  0
  4 20  1  0
  5 11  1  0
  6 12  1  0
  7 21  1  0
  8 13  1  0
  8 14  1  0
  8 22  1  0
M  END
