none
     RDKit          3D

 24 24  0  0  0  0  0  0  0  0999 V2000
    1.2169    1.2790    0.2810 C   0  0  0  0  0  0  0  0  0  0  0  0
    2.4682    0.4175    0.5607 C   0  0  0  0  0  0  0  0  0  0  0  0
    0.2133    0.1666   -0.0663 C   0  0  0  0  0  0  0  0  0  0  0  0
    1.9329   -0.8140    1.3084 C   0  0  0  0  0  0  0  0  0  0  0  0
    0.4458   -0.9077    0.9698 C   0  0  0  0  0  0  0  0  0  0  0  0
    1.3949    2.2783   -0.8847 C   0  0  0  0  0  0  0  0  0  0  0  0
    0.8116    2.0575    1.5597 C   0  0  0  0  0  0  0  0  0  0  0  0
    0.1849    2.3597   -1.8171 C   0  0  0  0  0  0  0  0  0  0  0  0
    2.9258    0.0813   -0.3847 H   0  0  0  0  0  0  0  0  0  0  0  0
    0.4445   -0.2525   -1.0637 H   0  0  0  0  0  0  0  0  0  0  0  0
    2.4648   -1.7241    1.0115 H   0  0  0  0  0  0  0  0  0  0  0  0
    2.0627   -0.6991    2.3910 H   0  0  0  0  0  0  0  0  0  0  0  0
    0.1607   -1.8938    0.5943 H   0  0  0  0  0  0  0  0  0  0  0  0
   -0.1683   -0.7072    1.8573 H   0  0  0  0  0  0  0  0  0  0  0  0
    2.2670    2.0082   -1.4857 H   0  0  0  0  0  0  0  0  0  0  0  0
    1.6023    3.2883   -0.4980 H   0  0  0  0  0  0  0  0  0  0  0  0
   -0.1272    2.6007    1.4042 H   0  0  0  0  0  0  0  0  0  0  0  0
    0.6716    1.4114    2.4345 H   0  0  0  0  0  0  0  0  0  0  0  0
    1.5783    2.7961    1.8381 H   0  0  0  0  0  0  0  0  0  0  0  0
    0.0584    1.4324   -2.3986 H   0  0  0  0  0  0  0  0  0  0  0  0
    0.3193    3.1615   -2.5392 H   0  0  0  0  0  0  0  0  0  0  0  0
    3.2490    0.9325    1.1307 H   0  0  0  0  0  0  0  0  0  0  0  0
   -0.8240    0.5133   -0.0833 H   0  0  0  0  0  0  0  0  0  0  0  0
   -0.7439    2.5504   -1.2664 H   0  0  0  0  0  0  0  0  0  0  0  0
  1  2  1  0
  1  3  1  0
  1  6  1  0
  1  7  1  0
  2  4  1  0
  3  5  1  0
  4  5  1  0
  6  8  1  0
  2  9  1  0
  2 22  1  0
  3 10  1  0
  3 23  1  0
  4 11  1  0
  4 12  1  0
  5 13  1  0
  5 14  1  0
  6 15  1  0
  6 16  1  0
  7 17  1  0
  7 18  1  0
  7 19  1  0
  8 20  1  0
  8 21  1  0
  8 24  1  0
M  END
