none
     RDKit          3D

 23 22  0  0  0  0  0  0  0  0999 V2000
    1.2301    1.2763    0.2970 C   0  0  0  0  0  0  0  0  0  0  0  0
    2.4819    0.4104    0.5549 C   0  0  0  0  0  0  0  0  0  0  0  0
    0.2137    0.1859   -0.0963 C   0  0  0  0  0  0  0  0  0  0  0  0
    3.6440    1.0824    1.2726 C   0  0  0  0  0  0  0  0  0  0  0  0
    4.8532    0.1390    1.4560 C   0  0  0  0  0  0  0  0  0  0  0  0
    4.0841    2.3327    0.5085 C   0  0  0  0  0  0  0  0  0  0  0  0
    5.4377   -0.4590    0.1716 C   0  0  0  0  0  0  0  0  0  0  0  0
    2.8182    0.0281   -0.4178 H   0  0  0  0  0  0  0  0  0  0  0  0
    0.5509   -0.3883   -0.9686 H   0  0  0  0  0  0  0  0  0  0  0  0
    3.3093    1.3931    2.2717 H   0  0  0  0  0  0  0  0  0  0  0  0
    4.5578   -0.6881    2.1128 H   0  0  0  0  0  0  0  0  0  0  0  0
    5.6509    0.6781    1.9835 H   0  0  0  0  0  0  0  0  0  0  0  0
    3.3074    3.1034    0.5413 H   0  0  0  0  0  0  0  0  0  0  0  0
    4.9853    2.7670    0.9539 H   0  0  0  0  0  0  0  0  0  0  0  0
    4.2937    2.1176   -0.5450 H   0  0  0  0  0  0  0  0  0  0  0  0
    5.7575    0.3176   -0.5287 H   0  0  0  0  0  0  0  0  0  0  0  0
    4.7208   -1.1145   -0.3314 H   0  0  0  0  0  0  0  0  0  0  0  0
    1.3821    1.9914   -0.5215 H   0  0  0  0  0  0  0  0  0  0  0  0
    0.9039    1.8065    1.1994 H   0  0  0  0  0  0  0  0  0  0  0  0
    2.2086   -0.4713    1.1521 H   0  0  0  0  0  0  0  0  0  0  0  0
    0.0244   -0.5098    0.7315 H   0  0  0  0  0  0  0  0  0  0  0  0
   -0.7385    0.6521   -0.3547 H   0  0  0  0  0  0  0  0  0  0  0  0
    6.3162   -1.0655    0.4164 H   0  0  0  0  0  0  0  0  0  0  0  0
  1  2  1  0
  1  3  1  0
  2  4  1  0
  4  5  1  0
  4  6  1  0
  5  7  1  0
  1 18  1  0
  1 19  1  0
  2  8  1  0
  2 20  1  0
  3  9  1  0
  3 21  1  0
  3 22  1  0
  4 10  1  0
  5 11  1  0
  5 12  1  0
  6 13  1  0
  6 14  1  0
  6 15  1  0
  7 16  1  0
  7 17  1  0
  7 23  1  0
M  END
