none
     RDKit          3D

 21 21  0  0  0  0  0  0  0  0999 V2000
    1.2387    1.2603    0.2971 C   0  0  0  0  0  0  0  0  0  0  0  0
    2.4783    0.3997    0.5525 C   0  0  0  0  0  0  0  0  0  0  0  0
    0.2194    0.1941   -0.0858 C   0  0  0  0  0  0  0  0  0  0  0  0
    1.9244   -0.8177    1.3099 C   0  0  0  0  0  0  0  0  0  0  0  0
    0.4400   -0.8939    0.9600 C   0  0  0  0  0  0  0  0  0  0  0  0
    3.6456    1.0821    1.2759 C   0  0  0  0  0  0  0  0  0  0  0  0
    4.8425    0.1506    1.4554 C   0  0  0  0  0  0  0  0  0  0  0  0
    2.8452    0.0623   -0.4244 H   0  0  0  0  0  0  0  0  0  0  0  0
    0.4455   -0.2075   -1.0879 H   0  0  0  0  0  0  0  0  0  0  0  0
    2.4532   -1.7284    1.0054 H   0  0  0  0  0  0  0  0  0  0  0  0
    2.0483   -0.7156    2.3956 H   0  0  0  0  0  0  0  0  0  0  0  0
    0.1498   -1.8901    0.6024 H   0  0  0  0  0  0  0  0  0  0  0  0
   -0.1621   -0.6828    1.8563 H   0  0  0  0  0  0  0  0  0  0  0  0
    3.3216    1.4408    2.2597 H   0  0  0  0  0  0  0  0  0  0  0  0
    4.6057   -0.7055    2.0992 H   0  0  0  0  0  0  0  0  0  0  0  0
    5.6785    0.6877    1.9194 H   0  0  0  0  0  0  0  0  0  0  0  0
    1.3847    2.0026   -0.5057 H   0  0  0  0  0  0  0  0  0  0  0  0
    0.9143    1.8035    1.2009 H   0  0  0  0  0  0  0  0  0  0  0  0
   -0.8116    0.5552   -0.0957 H   0  0  0  0  0  0  0  0  0  0  0  0
    3.9632    1.9585    0.7029 H   0  0  0  0  0  0  0  0  0  0  0  0
    5.1938   -0.2403    0.4904 H   0  0  0  0  0  0  0  0  0  0  0  0
  1  2  1  0
  1  3  1  0
  2  4  1  0
  2  6  1  0
  3  5  1  0
  4  5  1  0
  6  7  1  0
  1 17  1  0
  1 18  1  0
  2  8  1  0
  3  9  1  0
  3 19  1  0
  4 10  1  0
  4 11  1  0
  5 12  1  0
  5 13  1  0
  6 14  1  0
  6 20  1  0
  7 15  1  0
  7 16  1  0
  7 21  1  0
M  END
