none
     RDKit          3D

 24 24  0  0  0  0  0  0  0  0999 V2000
    1.2304    1.2872    0.2963 C   0  0  0  0  0  0  0  0  0  0  0  0
    2.4816    0.4084    0.5505 C   0  0  0  0  0  0  0  0  0  0  0  0
    0.2095    0.1915   -0.0731 C   0  0  0  0  0  0  0  0  0  0  0  0
    1.9330   -0.8167    1.3096 C   0  0  0  0  0  0  0  0  0  0  0  0
    0.4440   -0.9021    0.9571 C   0  0  0  0  0  0  0  0  0  0  0  0
    1.4023    2.2756   -0.8644 C   0  0  0  0  0  0  0  0  0  0  0  0
    3.6418    1.0782    1.2746 C   0  0  0  0  0  0  0  0  0  0  0  0
    0.8016    2.0666    1.5590 C   0  0  0  0  0  0  0  0  0  0  0  0
    2.8604    0.0562   -0.4191 H   0  0  0  0  0  0  0  0  0  0  0  0
    0.4333   -0.2145   -1.0756 H   0  0  0  0  0  0  0  0  0  0  0  0
    2.4595   -1.7267    1.0019 H   0  0  0  0  0  0  0  0  0  0  0  0
    2.0564   -0.7205    2.3940 H   0  0  0  0  0  0  0  0  0  0  0  0
    0.1608   -1.8908    0.5878 H   0  0  0  0  0  0  0  0  0  0  0  0
   -0.1654   -0.7067    1.8531 H   0  0  0  0  0  0  0  0  0  0  0  0
    1.7221    1.7702   -1.7816 H   0  0  0  0  0  0  0  0  0  0  0  0
    2.1427    3.0454   -0.6311 H   0  0  0  0  0  0  0  0  0  0  0  0
    3.3762    1.3773    2.2929 H   0  0  0  0  0  0  0  0  0  0  0  0
   -0.1768    2.5292    1.4224 H   0  0  0  0  0  0  0  0  0  0  0  0
    0.7456    1.4283    2.4475 H   0  0  0  0  0  0  0  0  0  0  0  0
    1.5176    2.8659    1.7869 H   0  0  0  0  0  0  0  0  0  0  0  0
   -0.8221    0.5436   -0.0884 H   0  0  0  0  0  0  0  0  0  0  0  0
    0.4537    2.7832   -1.0853 H   0  0  0  0  0  0  0  0  0  0  0  0
    4.4890    0.3888    1.3472 H   0  0  0  0  0  0  0  0  0  0  0  0
    3.9791    1.9674    0.7334 H   0  0  0  0  0  0  0  0  0  0  0  0
  1  2  1  0
  1  3  1  0
  1  6  1  0
  1  8  1  0
  2  4  1  0
  2  7  1  0
  3  5  1  0
  4  5  1  0
  2  9  1  0
  3 10  1  0
  3 21  1  0
  4 11  1  0
  4 12  1  0
  5 13  1  0
  5 14  1  0
  6 15  1  0
  6 16  1  0
  6 22  1  0
  7 17  1  0
  7 23  1  0
  7 24  1  0
  8 18  1  0
  8 19  1  0
  8 20  1  0
M  END
