none
     RDKit          3D

 23 22  0  0  0  0  0  0  0  0999 V2000
    1.2465    1.2793    0.2948 C   0  0  0  0  0  0  0  0  0  0  0  0
    2.4778    0.4045    0.5524 C   0  0  0  0  0  0  0  0  0  0  0  0
    1.3890    2.2783   -0.8659 C   0  0  0  0  0  0  0  0  0  0  0  0
    3.6469    1.0849    1.2748 C   0  0  0  0  0  0  0  0  0  0  0  0
    0.1729    2.3327   -1.8086 C   0  0  0  0  0  0  0  0  0  0  0  0
   -1.1680    2.0571   -1.1394 C   0  0  0  0  0  0  0  0  0  0  0  0
    4.8415    0.1469    1.4531 C   0  0  0  0  0  0  0  0  0  0  0  0
    2.8262   -0.0086   -0.3999 H   0  0  0  0  0  0  0  0  0  0  0  0
    2.2856    2.0595   -1.4677 H   0  0  0  0  0  0  0  0  0  0  0  0
    1.5521    3.2822   -0.4459 H   0  0  0  0  0  0  0  0  0  0  0  0
    3.3132    1.4287    2.2603 H   0  0  0  0  0  0  0  0  0  0  0  0
    0.3128    1.6045   -2.6195 H   0  0  0  0  0  0  0  0  0  0  0  0
    0.1405    3.3232   -2.2930 H   0  0  0  0  0  0  0  0  0  0  0  0
   -1.2718    2.6146   -0.2019 H   0  0  0  0  0  0  0  0  0  0  0  0
   -1.9836    2.3454   -1.7980 H   0  0  0  0  0  0  0  0  0  0  0  0
    4.5740   -0.7386    2.0441 H   0  0  0  0  0  0  0  0  0  0  0  0
    5.6589    0.6647    1.9772 H   0  0  0  0  0  0  0  0  0  0  0  0
    0.4368    0.5659    0.0841 H   0  0  0  0  0  0  0  0  0  0  0  0
    0.9467    1.8182    1.2107 H   0  0  0  0  0  0  0  0  0  0  0  0
    2.1607   -0.4482    1.1619 H   0  0  0  0  0  0  0  0  0  0  0  0
    3.9659    1.9626    0.7115 H   0  0  0  0  0  0  0  0  0  0  0  0
   -1.3073    0.9825   -0.9277 H   0  0  0  0  0  0  0  0  0  0  0  0
    5.2295   -0.1944    0.4850 H   0  0  0  0  0  0  0  0  0  0  0  0
  1  2  1  0
  1  3  1  0
  2  4  1  0
  3  5  1  0
  4  7  1  0
  5  6  1  0
  1 18  1  0
  1 19  1  0
  2  8  1  0
  2 20  1  0
  3  9  1  0
  3 10  1  0
  4 11  1  0
  4 21  1  0
  5 12  1  0
  5 13  1  0
  6 14  1  0
  6 15  1  0
  6 22  1  0
  7 16  1  0
  7 17  1  0
  7 23  1  0
M  END
