none
     RDKit          3D

 29 28  0  0  0  0  0  0  0  0999 V2000
    1.2317    1.2891    0.3018 C   0  0  0  0  0  0  0  0  0  0  0  0
    2.4788    0.4093    0.5536 C   0  0  0  0  0  0  0  0  0  0  0  0
    1.3927    2.2827   -0.8741 C   0  0  0  0  0  0  0  0  0  0  0  0
    3.6459    1.0789    1.2716 C   0  0  0  0  0  0  0  0  0  0  0  0
    0.8137    2.0613    1.5710 C   0  0  0  0  0  0  0  0  0  0  0  0
    0.1739    2.3349   -1.8130 C   0  0  0  0  0  0  0  0  0  0  0  0
   -1.1688    2.0508   -1.1367 C   0  0  0  0  0  0  0  0  0  0  0  0
    4.8535    0.1400    1.4560 C   0  0  0  0  0  0  0  0  0  0  0  0
    5.4360   -0.4570    0.1722 C   0  0  0  0  0  0  0  0  0  0  0  0
    2.8076    0.0017   -0.4088 H   0  0  0  0  0  0  0  0  0  0  0  0
    2.2715    2.0291   -1.4796 H   0  0  0  0  0  0  0  0  0  0  0  0
    1.5818    3.2939   -0.4874 H   0  0  0  0  0  0  0  0  0  0  0  0
    3.3348    1.4204    2.2684 H   0  0  0  0  0  0  0  0  0  0  0  0
   -0.1569    2.5506    1.4539 H   0  0  0  0  0  0  0  0  0  0  0  0
    0.7324    1.3797    2.4230 H   0  0  0  0  0  0  0  0  0  0  0  0
    1.5409    2.8414    1.8273 H   0  0  0  0  0  0  0  0  0  0  0  0
    0.3133    1.5959   -2.6121 H   0  0  0  0  0  0  0  0  0  0  0  0
    0.1393    3.3175   -2.3047 H   0  0  0  0  0  0  0  0  0  0  0  0
   -1.3538    2.7338   -0.3037 H   0  0  0  0  0  0  0  0  0  0  0  0
   -1.9699    2.2128   -1.8602 H   0  0  0  0  0  0  0  0  0  0  0  0
    4.5732   -0.6805    2.1272 H   0  0  0  0  0  0  0  0  0  0  0  0
    5.6455    0.7034    1.9649 H   0  0  0  0  0  0  0  0  0  0  0  0
    5.6684    0.3280   -0.5537 H   0  0  0  0  0  0  0  0  0  0  0  0
    4.7436   -1.1679   -0.2896 H   0  0  0  0  0  0  0  0  0  0  0  0
    0.4522    0.5537    0.0705 H   0  0  0  0  0  0  0  0  0  0  0  0
    2.1666   -0.4542    1.1566 H   0  0  0  0  0  0  0  0  0  0  0  0
    3.9620    1.9644    0.7120 H   0  0  0  0  0  0  0  0  0  0  0  0
   -1.2767    1.0129   -0.7991 H   0  0  0  0  0  0  0  0  0  0  0  0
    6.3623   -0.9991    0.3976 H   0  0  0  0  0  0  0  0  0  0  0  0
  1  2  1  0
  1  3  1  0
  1  5  1  0
  2  4  1  0
  3  6  1  0
  4  8  1  0
  6  7  1  0
  8  9  1  0
  1 25  1  0
  2 10  1  0
  2 26  1  0
  3 11  1  0
  3 12  1  0
  4 13  1  0
  4 27  1  0
  5 14  1  0
  5 15  1  0
  5 16  1  0
  6 17  1  0
  6 18  1  0
  7 19  1  0
  7 20  1  0
  7 28  1  0
  8 21  1  0
  8 22  1  0
  9 23  1  0
  9 24  1  0
  9 29  1  0
M  END
