none
     RDKit          3D

 23 22  0  0  0  0  0  0  0  0999 V2000
    2.4797    0.4093    0.5545 C   0  0  0  0  0  0  0  0  0  0  0  0
    3.6442    1.0795    1.2734 C   0  0  0  0  0  0  0  0  0  0  0  0
    4.8535    0.1387    1.4569 C   0  0  0  0  0  0  0  0  0  0  0  0
    4.0832    2.3322    0.5083 C   0  0  0  0  0  0  0  0  0  0  0  0
    5.4380   -0.4595    0.1686 C   0  0  0  0  0  0  0  0  0  0  0  0
    6.5895   -1.4395    0.4216 C   0  0  0  0  0  0  0  0  0  0  0  0
    7.2202   -1.9852   -0.8715 C   0  0  0  0  0  0  0  0  0  0  0  0
    2.7133    0.1854   -0.4913 H   0  0  0  0  0  0  0  0  0  0  0  0
    3.3047    1.3868    2.2714 H   0  0  0  0  0  0  0  0  0  0  0  0
    4.5476   -0.6853    2.1133 H   0  0  0  0  0  0  0  0  0  0  0  0
    5.6469    0.6759    1.9929 H   0  0  0  0  0  0  0  0  0  0  0  0
    3.2704    3.0656    0.4836 H   0  0  0  0  0  0  0  0  0  0  0  0
    4.9428    2.8076    0.9929 H   0  0  0  0  0  0  0  0  0  0  0  0
    4.3532    2.1086   -0.5290 H   0  0  0  0  0  0  0  0  0  0  0  0
    5.8027    0.3452   -0.4785 H   0  0  0  0  0  0  0  0  0  0  0  0
    4.6564   -0.9892   -0.3862 H   0  0  0  0  0  0  0  0  0  0  0  0
    6.2269   -2.2829    1.0208 H   0  0  0  0  0  0  0  0  0  0  0  0
    7.3711   -0.9411    1.0066 H   0  0  0  0  0  0  0  0  0  0  0  0
    8.0335   -2.6779   -0.6314 H   0  0  0  0  0  0  0  0  0  0  0  0
    1.6014    1.0638    0.5589 H   0  0  0  0  0  0  0  0  0  0  0  0
    2.2004   -0.5252    1.0516 H   0  0  0  0  0  0  0  0  0  0  0  0
    7.6294   -1.1700   -1.4767 H   0  0  0  0  0  0  0  0  0  0  0  0
    6.4758   -2.5211   -1.4688 H   0  0  0  0  0  0  0  0  0  0  0  0
  1  2  1  0
  2  3  1  0
  2  4  1  0
  3  5  1  0
  5  6  1  0
  6  7  1  0
  1  8  1  0
  1 20  1  0
  1 21  1  0
  2  9  1  0
  3 10  1  0
  3 11  1  0
  4 12  1  0
  4 13  1  0
  4 14  1  0
  5 15  1  0
  5 16  1  0
  6 17  1  0
  6 18  1  0
  7 19  1  0
  7 22  1  0
  7 23  1  0
M  END
