none
     RDKit          3D

 23 22  0  0  0  0  0  0  0  0999 V2000
    1.2296    1.2905    0.2935 C   0  0  0  0  0  0  0  0  0  0  0  0
    2.4741    0.4046    0.5522 C   0  0  0  0  0  0  0  0  0  0  0  0
    1.9340   -0.8184    1.3133 C   0  0  0  0  0  0  0  0  0  0  0  0
    1.3941    2.2846   -0.8745 C   0  0  0  0  0  0  0  0  0  0  0  0
    3.6431    1.0792    1.2754 C   0  0  0  0  0  0  0  0  0  0  0  0
    0.1767    2.3378   -1.8132 C   0  0  0  0  0  0  0  0  0  0  0  0
    4.8517    0.1429    1.4559 C   0  0  0  0  0  0  0  0  0  0  0  0
    2.8384    0.0406   -0.4170 H   0  0  0  0  0  0  0  0  0  0  0  0
    2.7034   -1.5860    1.4269 H   0  0  0  0  0  0  0  0  0  0  0  0
    1.5812   -0.5388    2.3135 H   0  0  0  0  0  0  0  0  0  0  0  0
    2.2698    2.0235   -1.4785 H   0  0  0  0  0  0  0  0  0  0  0  0
    1.5780    3.2861   -0.4686 H   0  0  0  0  0  0  0  0  0  0  0  0
    3.3230    1.4424    2.2582 H   0  0  0  0  0  0  0  0  0  0  0  0
    0.0018    1.3613   -2.2772 H   0  0  0  0  0  0  0  0  0  0  0  0
    0.3459    3.0700   -2.6102 H   0  0  0  0  0  0  0  0  0  0  0  0
    4.6329   -0.6624    2.1645 H   0  0  0  0  0  0  0  0  0  0  0  0
    5.7024    0.7073    1.8509 H   0  0  0  0  0  0  0  0  0  0  0  0
    0.3681    0.6469    0.0672 H   0  0  0  0  0  0  0  0  0  0  0  0
    0.9654    1.8390    1.2066 H   0  0  0  0  0  0  0  0  0  0  0  0
    1.1014   -1.2913    0.7742 H   0  0  0  0  0  0  0  0  0  0  0  0
    3.9660    1.9554    0.7010 H   0  0  0  0  0  0  0  0  0  0  0  0
   -0.7247    2.6291   -1.2652 H   0  0  0  0  0  0  0  0  0  0  0  0
    5.1516   -0.3009    0.5010 H   0  0  0  0  0  0  0  0  0  0  0  0
  1  2  1  0
  1  4  1  0
  2  3  1  0
  2  5  1  0
  4  6  1  0
  5  7  1  0
  1 18  1  0
  1 19  1  0
  2  8  1  0
  3  9  1  0
  3 10  1  0
  3 20  1  0
  4 11  1  0
  4 12  1  0
  5 13  1  0
  5 21  1  0
  6 14  1  0
  6 15  1  0
  6 22  1  0
  7 16  1  0
  7 17  1  0
  7 23  1  0
M  END
