none
     RDKit          3D

 26 25  0  0  0  0  0  0  0  0999 V2000
    2.4741    0.4062    0.5564 C   0  0  0  0  0  0  0  0  0  0  0  0
    1.9316   -0.8144    1.3090 C   0  0  0  0  0  0  0  0  0  0  0  0
    3.6481    1.0788    1.2723 C   0  0  0  0  0  0  0  0  0  0  0  0
    4.8560    0.1380    1.4586 C   0  0  0  0  0  0  0  0  0  0  0  0
    4.0821    2.3329    0.5084 C   0  0  0  0  0  0  0  0  0  0  0  0
    5.4381   -0.4601    0.1665 C   0  0  0  0  0  0  0  0  0  0  0  0
    6.5907   -1.4398    0.4217 C   0  0  0  0  0  0  0  0  0  0  0  0
    7.2183   -1.9837   -0.8696 C   0  0  0  0  0  0  0  0  0  0  0  0
    2.7438    0.1169   -0.4674 H   0  0  0  0  0  0  0  0  0  0  0  0
    2.6492   -1.6417    1.3096 H   0  0  0  0  0  0  0  0  0  0  0  0
    1.6895   -0.5607    2.3475 H   0  0  0  0  0  0  0  0  0  0  0  0
    3.3114    1.3949    2.2718 H   0  0  0  0  0  0  0  0  0  0  0  0
    4.5759   -0.6769    2.1338 H   0  0  0  0  0  0  0  0  0  0  0  0
    5.6499    0.6897    1.9767 H   0  0  0  0  0  0  0  0  0  0  0  0
    3.2732    3.0687    0.4892 H   0  0  0  0  0  0  0  0  0  0  0  0
    4.9470    2.8040    0.9886 H   0  0  0  0  0  0  0  0  0  0  0  0
    4.3465    2.1083   -0.5309 H   0  0  0  0  0  0  0  0  0  0  0  0
    5.8013    0.3446   -0.4796 H   0  0  0  0  0  0  0  0  0  0  0  0
    4.6592   -0.9929   -0.3861 H   0  0  0  0  0  0  0  0  0  0  0  0
    6.2263   -2.2827    1.0203 H   0  0  0  0  0  0  0  0  0  0  0  0
    7.3710   -0.9410    1.0067 H   0  0  0  0  0  0  0  0  0  0  0  0
    8.0333   -2.6780   -0.6311 H   0  0  0  0  0  0  0  0  0  0  0  0
    1.6589    1.1323    0.4596 H   0  0  0  0  0  0  0  0  0  0  0  0
    1.0163   -1.1723    0.8254 H   0  0  0  0  0  0  0  0  0  0  0  0
    7.6295   -1.1699   -1.4766 H   0  0  0  0  0  0  0  0  0  0  0  0
    6.4758   -2.5208   -1.4689 H   0  0  0  0  0  0  0  0  0  0  0  0
  1  2  1  0
  1  3  1  0
  3  4  1  0
  3  5  1  0
  4  6  1  0
  6  7  1  0
  7  8  1  0
  1  9  1  0
  1 23  1  0
  2 10  1  0
  2 11  1  0
  2 24  1  0
  3 12  1  0
  4 13  1  0
  4 14  1  0
  5 15  1  0
  5 16  1  0
  5 17  1  0
  6 18  1  0
  6 19  1  0
  7 20  1  0
  7 21  1  0
  8 22  1  0
  8 25  1  0
  8 26  1  0
M  END
