none
     RDKit          3D

 25 24  0  0  0  0  0  0  0  0999 V2000
    1.2243    1.2870    0.2897 C   0  0  0  0  0  0  0  0  0  0  0  0
    0.2190    0.1826   -0.0933 C   0  0  0  0  0  0  0  0  0  0  0  0
    1.3976    2.2854   -0.8706 C   0  0  0  0  0  0  0  0  0  0  0  0
   -1.1565    0.7378   -0.3624 C   0  0  0  0  0  0  0  0  0  0  0  0
   -2.2974    0.1538    0.0291 C   0  0  0  0  0  0  0  0  0  0  0  0
   -3.6008    0.7048   -0.2536 C   0  0  0  0  0  0  0  0  0  0  0  0
   -4.7476    0.1240    0.1338 C   0  0  0  0  0  0  0  0  0  0  0  0
   -6.0977    0.7047   -0.2095 C   0  0  0  0  0  0  0  0  0  0  0  0
   -7.0535   -0.3321   -0.8025 C   0  0  0  0  0  0  0  0  0  0  0  0
    0.5721   -0.3310   -0.9981 H   0  0  0  0  0  0  0  0  0  0  0  0
    1.7274    1.7727   -1.7876 H   0  0  0  0  0  0  0  0  0  0  0  0
    2.1642    3.0186   -0.5966 H   0  0  0  0  0  0  0  0  0  0  0  0
   -2.2603   -0.7761    0.5911 H   0  0  0  0  0  0  0  0  0  0  0  0
   -3.6315    1.6338   -0.8190 H   0  0  0  0  0  0  0  0  0  0  0  0
   -5.9970    1.5361   -0.9202 H   0  0  0  0  0  0  0  0  0  0  0  0
   -6.5416    1.1137    0.7048 H   0  0  0  0  0  0  0  0  0  0  0  0
   -8.0122    0.1385   -1.0487 H   0  0  0  0  0  0  0  0  0  0  0  0
    2.1964    0.8288    0.5265 H   0  0  0  0  0  0  0  0  0  0  0  0
    0.8870    1.8223    1.1890 H   0  0  0  0  0  0  0  0  0  0  0  0
    0.1876   -0.5662    0.7073 H   0  0  0  0  0  0  0  0  0  0  0  0
    0.4776    2.8503   -1.0890 H   0  0  0  0  0  0  0  0  0  0  0  0
   -1.2235    1.6426   -0.9594 H   0  0  0  0  0  0  0  0  0  0  0  0
   -4.7358   -0.7942    0.7204 H   0  0  0  0  0  0  0  0  0  0  0  0
   -6.6439   -0.7694   -1.7208 H   0  0  0  0  0  0  0  0  0  0  0  0
   -7.2437   -1.1429   -0.0937 H   0  0  0  0  0  0  0  0  0  0  0  0
  1  2  1  0
  1  3  1  0
  2  4  1  0
  4  5  2  0
  5  6  1  0
  6  7  2  0
  7  8  1  0
  8  9  1  0
  1 18  1  0
  1 19  1  0
  2 10  1  0
  2 20  1  0
  3 11  1  0
  3 12  1  0
  3 21  1  0
  4 22  1  0
  5 13  1  0
  6 14  1  0
  7 23  1  0
  8 15  1  0
  8 16  1  0
  9 17  1  0
  9 24  1  0
  9 25  1  0
M  END
