none
     RDKit          3D

 15 14  0  0  0  0  0  0  0  0999 V2000
    0.2083    0.1200   -0.0303 C   0  0  0  0  0  0  0  0  0  0  0  0
   -1.1150    0.7465   -0.3624 C   0  0  0  0  0  0  0  0  0  0  0  0
    0.1533    2.3936   -1.8696 C   0  0  0  0  0  0  0  0  0  0  0  0
   -1.1368    2.0469   -1.1332 C   0  0  0  0  0  0  0  0  0  0  0  0
   -2.2729    0.1590    0.0077 C   0  0  0  0  0  0  0  0  0  0  0  0
    0.7350   -0.1632   -0.9499 H   0  0  0  0  0  0  0  0  0  0  0  0
    0.4266    1.6051   -2.5776 H   0  0  0  0  0  0  0  0  0  0  0  0
    0.0236    3.3204   -2.4289 H   0  0  0  0  0  0  0  0  0  0  0  0
   -1.3541    2.8590   -0.4266 H   0  0  0  0  0  0  0  0  0  0  0  0
   -1.9560    2.0270   -1.8616 H   0  0  0  0  0  0  0  0  0  0  0  0
   -2.2915   -0.7765    0.5571 H   0  0  0  0  0  0  0  0  0  0  0  0
    0.8293    0.8273    0.5275 H   0  0  0  0  0  0  0  0  0  0  0  0
    0.1032   -0.7811    0.5787 H   0  0  0  0  0  0  0  0  0  0  0  0
    0.9822    2.5393   -1.1724 H   0  0  0  0  0  0  0  0  0  0  0  0
   -3.2342    0.6043   -0.2290 H   0  0  0  0  0  0  0  0  0  0  0  0
  1  2  1  0
  2  4  1  0
  2  5  2  3
  3  4  1  0
  1  6  1  0
  1 12  1  0
  1 13  1  0
  3  7  1  0
  3  8  1  0
  3 14  1  0
  4  9  1  0
  4 10  1  0
  5 11  1  0
  5 15  1  0
M  END
