none
     RDKit          3D

 19 18  0  0  0  0  0  0  0  0999 V2000
    1.2238    1.2905    0.2919 C   0  0  0  0  0  0  0  0  0  0  0  0
    0.2327    0.1828   -0.0949 C   0  0  0  0  0  0  0  0  0  0  0  0
    0.4253   -0.9057    0.9671 C   0  0  0  0  0  0  0  0  0  0  0  0
   -1.1542    0.7368   -0.3574 C   0  0  0  0  0  0  0  0  0  0  0  0
   -2.2990    0.1556    0.0279 C   0  0  0  0  0  0  0  0  0  0  0  0
   -3.6033    0.7065   -0.2521 C   0  0  0  0  0  0  0  0  0  0  0  0
   -4.7434    0.1228    0.1346 C   0  0  0  0  0  0  0  0  0  0  0  0
    0.5672   -0.2330   -1.0522 H   0  0  0  0  0  0  0  0  0  0  0  0
   -0.1450   -1.8009    0.7242 H   0  0  0  0  0  0  0  0  0  0  0  0
    0.1146   -0.5582    1.9584 H   0  0  0  0  0  0  0  0  0  0  0  0
   -2.2749   -0.7777    0.5840 H   0  0  0  0  0  0  0  0  0  0  0  0
   -3.6496    1.6437   -0.8028 H   0  0  0  0  0  0  0  0  0  0  0  0
    2.2496    0.8967    0.3546 H   0  0  0  0  0  0  0  0  0  0  0  0
    1.2290    2.0892   -0.4520 H   0  0  0  0  0  0  0  0  0  0  0  0
    0.9716    1.7340    1.2629 H   0  0  0  0  0  0  0  0  0  0  0  0
    1.4834   -1.2059    1.0318 H   0  0  0  0  0  0  0  0  0  0  0  0
   -1.1933    1.6606   -0.9394 H   0  0  0  0  0  0  0  0  0  0  0  0
   -5.7022    0.5778   -0.0988 H   0  0  0  0  0  0  0  0  0  0  0  0
   -4.7582   -0.8124    0.6869 H   0  0  0  0  0  0  0  0  0  0  0  0
  1  2  1  0
  2  3  1  0
  2  4  1  0
  4  5  2  0
  5  6  1  0
  6  7  2  0
  1 13  1  0
  1 14  1  0
  1 15  1  0
  2  8  1  0
  3  9  1  0
  3 10  1  0
  3 16  1  0
  4 17  1  0
  5 11  1  0
  6 12  1  0
  7 18  1  0
  7 19  1  0
M  END
