none
     RDKit          3D

 24 23  0  0  0  0  0  0  0  0999 V2000
    1.2337    1.2599    0.2851 C   0  0  0  0  0  0  0  0  0  0  0  0
    2.4967    0.4128    0.5551 C   0  0  0  0  0  0  0  0  0  0  0  0
    0.1932    0.1952   -0.0971 C   0  0  0  0  0  0  0  0  0  0  0  0
    1.4085    2.2845   -0.8622 C   0  0  0  0  0  0  0  0  0  0  0  0
    3.6493    1.0885    1.2741 C   0  0  0  0  0  0  0  0  0  0  0  0
   -1.1628    0.7359   -0.3668 C   0  0  0  0  0  0  0  0  0  0  0  0
    4.8415    0.1456    1.4535 C   0  0  0  0  0  0  0  0  0  0  0  0
   -2.2952    0.1553    0.0302 C   0  0  0  0  0  0  0  0  0  0  0  0
    2.8464    0.0113   -0.4029 H   0  0  0  0  0  0  0  0  0  0  0  0
    0.5507   -0.3342   -1.0052 H   0  0  0  0  0  0  0  0  0  0  0  0
    1.6437    1.7690   -1.8071 H   0  0  0  0  0  0  0  0  0  0  0  0
    2.2124    2.9816   -0.6556 H   0  0  0  0  0  0  0  0  0  0  0  0
    3.3125    1.4301    2.2592 H   0  0  0  0  0  0  0  0  0  0  0  0
    4.5750   -0.7366    2.0480 H   0  0  0  0  0  0  0  0  0  0  0  0
    5.6599    0.6645    1.9757 H   0  0  0  0  0  0  0  0  0  0  0  0
   -2.3013   -0.7635    0.6044 H   0  0  0  0  0  0  0  0  0  0  0  0
    0.9213    1.8009    1.2104 H   0  0  0  0  0  0  0  0  0  0  0  0
    2.2088   -0.4627    1.1644 H   0  0  0  0  0  0  0  0  0  0  0  0
    0.1416   -0.5722    0.6994 H   0  0  0  0  0  0  0  0  0  0  0  0
    0.4968    2.8883   -1.0336 H   0  0  0  0  0  0  0  0  0  0  0  0
    3.9700    1.9639    0.7154 H   0  0  0  0  0  0  0  0  0  0  0  0
   -1.2409    1.6365   -0.9696 H   0  0  0  0  0  0  0  0  0  0  0  0
    5.2299   -0.1954    0.4850 H   0  0  0  0  0  0  0  0  0  0  0  0
   -3.2602    0.5875   -0.2298 H   0  0  0  0  0  0  0  0  0  0  0  0
  1  2  1  0
  1  3  1  0
  1  4  1  0
  2  5  1  0
  3  6  1  0
  5  7  1  0
  6  8  2  3
  1 17  1  0
  2  9  1  0
  2 18  1  0
  3 10  1  0
  3 19  1  0
  4 11  1  0
  4 12  1  0
  4 20  1  0
  5 13  1  0
  5 21  1  0
  6 22  1  0
  7 14  1  0
  7 15  1  0
  7 23  1  0
  8 16  1  0
  8 24  1  0
M  END
