none
     RDKit          3D

 24 24  0  0  0  0  0  0  0  0999 V2000
    1.2242    1.2605    0.2627 C   0  0  0  0  0  0  0  0  0  0  0  0
    2.4762    0.4043    0.5478 C   0  0  0  0  0  0  0  0  0  0  0  0
    0.2127    0.1613   -0.0709 C   0  0  0  0  0  0  0  0  0  0  0  0
    1.9312   -0.8136    1.3151 C   0  0  0  0  0  0  0  0  0  0  0  0
    0.4452   -0.9015    0.9737 C   0  0  0  0  0  0  0  0  0  0  0  0
    1.3909    2.2793   -0.8746 C   0  0  0  0  0  0  0  0  0  0  0  0
    3.6264    1.0874    1.2735 C   0  0  0  0  0  0  0  0  0  0  0  0
    0.1880    2.3676   -1.8175 C   0  0  0  0  0  0  0  0  0  0  0  0
    2.8670    0.0440   -0.4151 H   0  0  0  0  0  0  0  0  0  0  0  0
    0.4339   -0.2609   -1.0676 H   0  0  0  0  0  0  0  0  0  0  0  0
    2.4579   -1.7255    1.0084 H   0  0  0  0  0  0  0  0  0  0  0  0
    2.0565   -0.7112    2.3975 H   0  0  0  0  0  0  0  0  0  0  0  0
    0.1544   -1.8934    0.6109 H   0  0  0  0  0  0  0  0  0  0  0  0
   -0.1599   -0.6844    1.8646 H   0  0  0  0  0  0  0  0  0  0  0  0
    2.2779    2.0371   -1.4763 H   0  0  0  0  0  0  0  0  0  0  0  0
    1.5782    3.2752   -0.4521 H   0  0  0  0  0  0  0  0  0  0  0  0
    3.3219    1.4645    2.2530 H   0  0  0  0  0  0  0  0  0  0  0  0
    0.0681    1.4433   -2.4057 H   0  0  0  0  0  0  0  0  0  0  0  0
    0.3179    3.1763   -2.5306 H   0  0  0  0  0  0  0  0  0  0  0  0
    0.9057    1.7880    1.1874 H   0  0  0  0  0  0  0  0  0  0  0  0
   -0.8210    0.5186   -0.0749 H   0  0  0  0  0  0  0  0  0  0  0  0
    4.4529    0.3781    1.4308 H   0  0  0  0  0  0  0  0  0  0  0  0
    4.0193    1.9249    0.6894 H   0  0  0  0  0  0  0  0  0  0  0  0
   -0.7424    2.5450   -1.2648 H   0  0  0  0  0  0  0  0  0  0  0  0
  1  2  1  0
  1  3  1  0
  1  6  1  0
  2  4  1  0
  2  7  1  0
  3  5  1  0
  4  5  1  0
  6  8  1  0
  1 20  1  0
  2  9  1  0
  3 10  1  0
  3 21  1  0
  4 11  1  0
  4 12  1  0
  5 13  1  0
  5 14  1  0
  6 15  1  0
  6 16  1  0
  7 17  1  0
  7 22  1  0
  7 23  1  0
  8 18  1  0
  8 19  1  0
  8 24  1  0
M  END
