none
     RDKit          3D

 17 16  0  0  0  0  0  0  0  0999 V2000
    1.2135    1.2915    0.2377 C   0  0  0  0  0  0  0  0  0  0  0  0
    0.2705    0.1189   -0.0318 C   0  0  0  0  0  0  0  0  0  0  0  0
    0.4219   -0.9694    1.0208 C   0  0  0  0  0  0  0  0  0  0  0  0
    1.3645    2.3046   -0.9045 C   0  0  0  0  0  0  0  0  0  0  0  0
    0.1789    2.4266   -1.8484 C   0  0  0  0  0  0  0  0  0  0  0  0
    0.4948   -0.3225   -1.0096 H   0  0  0  0  0  0  0  0  0  0  0  0
   -0.2652   -1.7957    0.8129 H   0  0  0  0  0  0  0  0  0  0  0  0
    0.1958   -0.5818    2.0193 H   0  0  0  0  0  0  0  0  0  0  0  0
    2.2366    2.0161   -1.5050 H   0  0  0  0  0  0  0  0  0  0  0  0
    1.6008    3.2874   -0.4797 H   0  0  0  0  0  0  0  0  0  0  0  0
    0.0079    1.5021   -2.4076 H   0  0  0  0  0  0  0  0  0  0  0  0
    0.3636    3.2212   -2.5789 H   0  0  0  0  0  0  0  0  0  0  0  0
    2.2124    0.9242    0.5049 H   0  0  0  0  0  0  0  0  0  0  0  0
    0.8430    1.8246    1.1231 H   0  0  0  0  0  0  0  0  0  0  0  0
   -0.7694    0.4633   -0.0522 H   0  0  0  0  0  0  0  0  0  0  0  0
    1.4407   -1.3699    1.0295 H   0  0  0  0  0  0  0  0  0  0  0  0
   -0.7337    2.6805   -1.3002 H   0  0  0  0  0  0  0  0  0  0  0  0
  1  2  1  0
  1  4  1  0
  2  3  1  0
  4  5  1  0
  1 13  1  0
  1 14  1  0
  2  6  1  0
  2 15  1  0
  3  7  1  0
  3  8  1  0
  3 16  1  0
  4  9  1  0
  4 10  1  0
  5 11  1  0
  5 12  1  0
  5 17  1  0
M  END
