none
     RDKit          3D

 24 23  0  0  0  0  0  0  0  0999 V2000
    1.2573    1.1786    0.3112 C   0  0  0  0  0  0  0  0  0  0  0  0
    2.5254    0.3700    0.5794 C   0  0  0  0  0  0  0  0  0  0  0  0
    0.1696    0.1916   -0.1167 C   0  0  0  0  0  0  0  0  0  0  0  0
    3.6476    1.1180    1.2699 C   0  0  0  0  0  0  0  0  0  0  0  0
   -1.1769    0.7852   -0.3805 C   0  0  0  0  0  0  0  0  0  0  0  0
   -1.2138    2.0740   -1.1496 C   0  0  0  0  0  0  0  0  0  0  0  0
    4.1090    2.3566    0.5144 C   0  0  0  0  0  0  0  0  0  0  0  0
   -2.3060    0.1696    0.0340 C   0  0  0  0  0  0  0  0  0  0  0  0
    2.8889   -0.0062   -0.3852 H   0  0  0  0  0  0  0  0  0  0  0  0
    0.5046   -0.3165   -1.0280 H   0  0  0  0  0  0  0  0  0  0  0  0
    3.3491    1.3967    2.2887 H   0  0  0  0  0  0  0  0  0  0  0  0
   -0.8325    2.8876   -0.5284 H   0  0  0  0  0  0  0  0  0  0  0  0
   -2.2240    2.3288   -1.4884 H   0  0  0  0  0  0  0  0  0  0  0  0
    3.3246    3.1200    0.5104 H   0  0  0  0  0  0  0  0  0  0  0  0
    4.9996    2.7776    0.9881 H   0  0  0  0  0  0  0  0  0  0  0  0
    4.3496    2.1037   -0.5226 H   0  0  0  0  0  0  0  0  0  0  0  0
   -2.2701   -0.7698    0.5692 H   0  0  0  0  0  0  0  0  0  0  0  0
    1.4443    1.9123   -0.4712 H   0  0  0  0  0  0  0  0  0  0  0  0
    0.9488    1.7271    1.2056 H   0  0  0  0  0  0  0  0  0  0  0  0
    2.2803   -0.5027    1.1985 H   0  0  0  0  0  0  0  0  0  0  0  0
    0.0790   -0.5746    0.6611 H   0  0  0  0  0  0  0  0  0  0  0  0
    4.4912    0.4306    1.3576 H   0  0  0  0  0  0  0  0  0  0  0  0
   -0.5730    1.9821   -2.0337 H   0  0  0  0  0  0  0  0  0  0  0  0
   -3.2810    0.5867   -0.1813 H   0  0  0  0  0  0  0  0  0  0  0  0
  1  2  1  0
  1  3  1  0
  2  4  1  0
  3  5  1  0
  4  7  1  0
  5  6  1  0
  5  8  2  3
  1 18  1  0
  1 19  1  0
  2  9  1  0
  2 20  1  0
  3 10  1  0
  3 21  1  0
  4 11  1  0
  4 22  1  0
  6 12  1  0
  6 13  1  0
  6 23  1  0
  7 14  1  0
  7 15  1  0
  7 16  1  0
  8 17  1  0
  8 24  1  0
M  END
