none
     RDKit          3D

 20 19  0  0  0  0  0  0  0  0999 V2000
    1.2484    1.2995    0.2998 C   0  0  0  0  0  0  0  0  0  0  0  0
    2.4502    0.3921    0.5472 C   0  0  0  0  0  0  0  0  0  0  0  0
    1.9403   -0.8203    1.3126 C   0  0  0  0  0  0  0  0  0  0  0  0
    3.6429    1.0762    1.2705 C   0  0  0  0  0  0  0  0  0  0  0  0
    4.8591    0.1447    1.4582 C   0  0  0  0  0  0  0  0  0  0  0  0
    5.4325   -0.4537    0.1754 C   0  0  0  0  0  0  0  0  0  0  0  0
    2.8189    0.0715   -0.4329 H   0  0  0  0  0  0  0  0  0  0  0  0
    2.6871   -1.6050    1.3912 H   0  0  0  0  0  0  0  0  0  0  0  0
    1.6144   -0.5470    2.3248 H   0  0  0  0  0  0  0  0  0  0  0  0
    3.3187    1.4375    2.2590 H   0  0  0  0  0  0  0  0  0  0  0  0
    4.6054   -0.6694    2.1505 H   0  0  0  0  0  0  0  0  0  0  0  0
    5.6473    0.7199    1.9458 H   0  0  0  0  0  0  0  0  0  0  0  0
    5.6620    0.3271   -0.5566 H   0  0  0  0  0  0  0  0  0  0  0  0
    4.7463   -1.1729   -0.2859 H   0  0  0  0  0  0  0  0  0  0  0  0
    0.4732    0.7490   -0.2826 H   0  0  0  0  0  0  0  0  0  0  0  0
    1.5143    2.1799   -0.2716 H   0  0  0  0  0  0  0  0  0  0  0  0
    0.7802    1.6181    1.2386 H   0  0  0  0  0  0  0  0  0  0  0  0
    1.0728   -1.2575    0.7923 H   0  0  0  0  0  0  0  0  0  0  0  0
    3.9584    1.9607    0.7047 H   0  0  0  0  0  0  0  0  0  0  0  0
    6.3662   -0.9927    0.3960 H   0  0  0  0  0  0  0  0  0  0  0  0
  1  2  1  0
  2  3  1  0
  2  4  1  0
  4  5  1  0
  5  6  1  0
  1 15  1  0
  1 16  1  0
  1 17  1  0
  2  7  1  0
  3  8  1  0
  3  9  1  0
  3 18  1  0
  4 10  1  0
  4 19  1  0
  5 11  1  0
  5 12  1  0
  6 13  1  0
  6 14  1  0
  6 20  1  0
M  END
