none
     RDKit          3D

 14 13  0  0  0  0  0  0  0  0999 V2000
    2.4838    0.4498    0.5365 C   0  0  0  0  0  0  0  0  0  0  0  0
    1.9014   -0.7560    1.2750 C   0  0  0  0  0  0  0  0  0  0  0  0
    0.4214   -0.9399    0.9779 C   0  0  0  0  0  0  0  0  0  0  0  0
    3.6605    1.0564    1.2846 C   0  0  0  0  0  0  0  0  0  0  0  0
    2.7927    0.1518   -0.4719 H   0  0  0  0  0  0  0  0  0  0  0  0
    2.4552   -1.6608    1.0000 H   0  0  0  0  0  0  0  0  0  0  0  0
    2.0148   -0.6294    2.3584 H   0  0  0  0  0  0  0  0  0  0  0  0
    0.0357   -1.8191    1.5035 H   0  0  0  0  0  0  0  0  0  0  0  0
   -0.1571   -0.0696    1.3042 H   0  0  0  0  0  0  0  0  0  0  0  0
    3.3557    1.4174    2.2722 H   0  0  0  0  0  0  0  0  0  0  0  0
    1.7207    1.2287    0.4194 H   0  0  0  0  0  0  0  0  0  0  0  0
    0.2535   -1.0834   -0.0942 H   0  0  0  0  0  0  0  0  0  0  0  0
    4.4595    0.3201    1.4180 H   0  0  0  0  0  0  0  0  0  0  0  0
    4.0687    1.9041    0.7255 H   0  0  0  0  0  0  0  0  0  0  0  0
  1  2  1  0
  1  4  1  0
  2  3  1  0
  1  5  1  0
  1 11  1  0
  2  6  1  0
  2  7  1  0
  3  8  1  0
  3  9  1  0
  3 12  1  0
  4 10  1  0
  4 13  1  0
  4 14  1  0
M  END
