none
     RDKit          3D

 17 16  0  0  0  0  0  0  0  0999 V2000
   -1.1574    0.7467   -0.3647 C   0  0  0  0  0  0  0  0  0  0  0  0
   -1.1608    2.0440   -1.1291 C   0  0  0  0  0  0  0  0  0  0  0  0
   -2.2921    0.1568    0.0208 C   0  0  0  0  0  0  0  0  0  0  0  0
   -3.6043    0.7049   -0.2505 C   0  0  0  0  0  0  0  0  0  0  0  0
   -4.7442    0.1176    0.1378 C   0  0  0  0  0  0  0  0  0  0  0  0
   -4.7830   -1.1322    0.8775 C   0  0  0  0  0  0  0  0  0  0  0  0
   -4.0614   -1.3523    1.9883 C   0  0  0  0  0  0  0  0  0  0  0  0
   -1.6490    2.8446   -0.5604 H   0  0  0  0  0  0  0  0  0  0  0  0
   -1.6426    1.9283   -2.1078 H   0  0  0  0  0  0  0  0  0  0  0  0
   -2.1899   -0.8119    0.5007 H   0  0  0  0  0  0  0  0  0  0  0  0
   -3.6831    1.6325   -0.8120 H   0  0  0  0  0  0  0  0  0  0  0  0
   -4.1288   -2.3008    2.5062 H   0  0  0  0  0  0  0  0  0  0  0  0
   -3.4233   -0.5917    2.4345 H   0  0  0  0  0  0  0  0  0  0  0  0
   -0.1981    0.2703   -0.1622 H   0  0  0  0  0  0  0  0  0  0  0  0
   -0.1304    2.3589   -1.3091 H   0  0  0  0  0  0  0  0  0  0  0  0
   -5.7035    0.5525   -0.1399 H   0  0  0  0  0  0  0  0  0  0  0  0
   -5.4558   -1.9001    0.5024 H   0  0  0  0  0  0  0  0  0  0  0  0
  1  2  1  0
  1  3  2  0
  3  4  1  0
  4  5  2  0
  5  6  1  0
  6  7  2  0
  1 14  1  0
  2  8  1  0
  2  9  1  0
  2 15  1  0
  3 10  1  0
  4 11  1  0
  5 16  1  0
  6 17  1  0
  7 12  1  0
  7 13  1  0
M  END
