none
     RDKit          3D

 20 19  0  0  0  0  0  0  0  0999 V2000
    0.2164    0.1803   -0.0956 C   0  0  0  0  0  0  0  0  0  0  0  0
   -1.1529    0.7418   -0.3606 C   0  0  0  0  0  0  0  0  0  0  0  0
   -2.2931    0.1560    0.0212 C   0  0  0  0  0  0  0  0  0  0  0  0
   -3.6004    0.7066   -0.2511 C   0  0  0  0  0  0  0  0  0  0  0  0
   -4.7478    0.1209    0.1358 C   0  0  0  0  0  0  0  0  0  0  0  0
   -6.0958    0.7058   -0.2108 C   0  0  0  0  0  0  0  0  0  0  0  0
   -4.7820   -1.1334    0.8778 C   0  0  0  0  0  0  0  0  0  0  0  0
   -4.0601   -1.3517    1.9879 C   0  0  0  0  0  0  0  0  0  0  0  0
    0.7358    0.0049   -1.0431 H   0  0  0  0  0  0  0  0  0  0  0  0
   -2.2039   -0.8160    0.4956 H   0  0  0  0  0  0  0  0  0  0  0  0
   -3.6365    1.6401   -0.8086 H   0  0  0  0  0  0  0  0  0  0  0  0
   -6.0047    1.6517   -0.7558 H   0  0  0  0  0  0  0  0  0  0  0  0
   -6.6724    0.9033    0.6995 H   0  0  0  0  0  0  0  0  0  0  0  0
   -4.1210   -2.3039    2.5014 H   0  0  0  0  0  0  0  0  0  0  0  0
   -3.4309   -0.5873    2.4383 H   0  0  0  0  0  0  0  0  0  0  0  0
    0.8012    0.8948    0.4928 H   0  0  0  0  0  0  0  0  0  0  0  0
    0.1769   -0.7652    0.4553 H   0  0  0  0  0  0  0  0  0  0  0  0
   -1.1782    1.6963   -0.8799 H   0  0  0  0  0  0  0  0  0  0  0  0
   -6.6649    0.0137   -0.8403 H   0  0  0  0  0  0  0  0  0  0  0  0
   -5.4401   -1.9117    0.4974 H   0  0  0  0  0  0  0  0  0  0  0  0
  1  2  1  0
  2  3  2  0
  3  4  1  0
  4  5  2  0
  5  6  1  0
  5  7  1  0
  7  8  2  0
  1  9  1  0
  1 16  1  0
  1 17  1  0
  2 18  1  0
  3 10  1  0
  4 11  1  0
  6 12  1  0
  6 13  1  0
  6 19  1  0
  7 20  1  0
  8 14  1  0
  8 15  1  0
M  END
