none
     RDKit          3D

 21 21  0  0  0  0  0  0  0  0999 V2000
    1.2254    1.2673    0.2689 C   0  0  0  0  0  0  0  0  0  0  0  0
    2.4702    0.4158    0.5623 C   0  0  0  0  0  0  0  0  0  0  0  0
    0.2180    0.1715   -0.0744 C   0  0  0  0  0  0  0  0  0  0  0  0
    1.9300   -0.8124    1.3081 C   0  0  0  0  0  0  0  0  0  0  0  0
    0.4425   -0.8971    0.9667 C   0  0  0  0  0  0  0  0  0  0  0  0
    1.3904    2.2810   -0.8716 C   0  0  0  0  0  0  0  0  0  0  0  0
    0.1836    2.3541   -1.8155 C   0  0  0  0  0  0  0  0  0  0  0  0
    2.9368    0.0845   -0.3871 H   0  0  0  0  0  0  0  0  0  0  0  0
    0.4434   -0.2537   -1.0755 H   0  0  0  0  0  0  0  0  0  0  0  0
    2.4649   -1.7255    1.0152 H   0  0  0  0  0  0  0  0  0  0  0  0
    2.0597   -0.6930    2.3923 H   0  0  0  0  0  0  0  0  0  0  0  0
    0.1509   -1.8935    0.6049 H   0  0  0  0  0  0  0  0  0  0  0  0
   -0.1629   -0.6833    1.8603 H   0  0  0  0  0  0  0  0  0  0  0  0
    2.2779    2.0374   -1.4722 H   0  0  0  0  0  0  0  0  0  0  0  0
    1.5758    3.2824   -0.4573 H   0  0  0  0  0  0  0  0  0  0  0  0
    0.0635    1.4271   -2.4081 H   0  0  0  0  0  0  0  0  0  0  0  0
    0.3128    3.1609   -2.5282 H   0  0  0  0  0  0  0  0  0  0  0  0
    0.9042    1.7951    1.2084 H   0  0  0  0  0  0  0  0  0  0  0  0
    3.2381    0.9432    1.1358 H   0  0  0  0  0  0  0  0  0  0  0  0
   -0.8203    0.5236   -0.0829 H   0  0  0  0  0  0  0  0  0  0  0  0
   -0.7478    2.5386   -1.2641 H   0  0  0  0  0  0  0  0  0  0  0  0
  1  2  1  0
  1  3  1  0
  1  6  1  0
  2  4  1  0
  3  5  1  0
  4  5  1  0
  6  7  1  0
  1 18  1  0
  2  8  1  0
  2 19  1  0
  3  9  1  0
  3 20  1  0
  4 10  1  0
  4 11  1  0
  5 12  1  0
  5 13  1  0
  6 14  1  0
  6 15  1  0
  7 16  1  0
  7 17  1  0
  7 21  1  0
M  END
