none
     RDKit          3D

 20 19  0  0  0  0  0  0  0  0999 V2000
    1.2323    1.2888    0.3046 C   0  0  0  0  0  0  0  0  0  0  0  0
    2.4759    0.4057    0.5526 C   0  0  0  0  0  0  0  0  0  0  0  0
    3.6467    1.0839    1.2743 C   0  0  0  0  0  0  0  0  0  0  0  0
    0.8101    2.0616    1.5662 C   0  0  0  0  0  0  0  0  0  0  0  0
    4.8493    0.1405    1.4546 C   0  0  0  0  0  0  0  0  0  0  0  0
    4.0876    2.3317    0.5084 C   0  0  0  0  0  0  0  0  0  0  0  0
    2.8156    0.0080   -0.4110 H   0  0  0  0  0  0  0  0  0  0  0  0
    3.3264    1.3831    2.2799 H   0  0  0  0  0  0  0  0  0  0  0  0
   -0.1417    2.5700    1.3899 H   0  0  0  0  0  0  0  0  0  0  0  0
    0.6785    1.3802    2.4144 H   0  0  0  0  0  0  0  0  0  0  0  0
    1.5400    2.8300    1.8488 H   0  0  0  0  0  0  0  0  0  0  0  0
    4.5635   -0.7499    2.0235 H   0  0  0  0  0  0  0  0  0  0  0  0
    5.6576    0.6433    2.0017 H   0  0  0  0  0  0  0  0  0  0  0  0
    3.3002    3.0900    0.4518 H   0  0  0  0  0  0  0  0  0  0  0  0
    4.9444    2.7989    1.0017 H   0  0  0  0  0  0  0  0  0  0  0  0
    4.3861    2.0809   -0.5153 H   0  0  0  0  0  0  0  0  0  0  0  0
    0.4020    0.6452   -0.0248 H   0  0  0  0  0  0  0  0  0  0  0  0
    1.4225    1.9973   -0.5135 H   0  0  0  0  0  0  0  0  0  0  0  0
    2.1627   -0.4598    1.1467 H   0  0  0  0  0  0  0  0  0  0  0  0
    5.2463   -0.1857    0.4872 H   0  0  0  0  0  0  0  0  0  0  0  0
  1  2  1  0
  1  4  1  0
  2  3  1  0
  3  5  1  0
  3  6  1  0
  1 17  1  0
  1 18  1  0
  2  7  1  0
  2 19  1  0
  3  8  1  0
  4  9  1  0
  4 10  1  0
  4 11  1  0
  5 12  1  0
  5 13  1  0
  5 20  1  0
  6 14  1  0
  6 15  1  0
  6 16  1  0
M  END
