none
     RDKit          3D

 22 22  0  0  0  0  0  0  0  0999 V2000
    1.2516    1.2546    0.3051 C   0  0  0  0  0  0  0  0  0  0  0  0
    2.4893    0.3896    0.5400 C   0  0  0  0  0  0  0  0  0  0  0  0
    0.2270    0.1916   -0.1035 C   0  0  0  0  0  0  0  0  0  0  0  0
    1.9312   -0.8193    1.3073 C   0  0  0  0  0  0  0  0  0  0  0  0
    0.4374   -0.8908    0.9565 C   0  0  0  0  0  0  0  0  0  0  0  0
    3.6196    1.0906    1.2721 C   0  0  0  0  0  0  0  0  0  0  0  0
   -1.1528    0.7283   -0.3594 C   0  0  0  0  0  0  0  0  0  0  0  0
   -2.2975    0.1650    0.0367 C   0  0  0  0  0  0  0  0  0  0  0  0
    2.8711    0.0456   -0.4310 H   0  0  0  0  0  0  0  0  0  0  0  0
    0.5548   -0.2260   -1.0693 H   0  0  0  0  0  0  0  0  0  0  0  0
    2.4515   -1.7362    1.0100 H   0  0  0  0  0  0  0  0  0  0  0  0
    2.0559   -0.7094    2.3892 H   0  0  0  0  0  0  0  0  0  0  0  0
    0.1554   -1.8835    0.5945 H   0  0  0  0  0  0  0  0  0  0  0  0
   -0.1527   -0.6860    1.8583 H   0  0  0  0  0  0  0  0  0  0  0  0
    3.2976    1.4576    2.2510 H   0  0  0  0  0  0  0  0  0  0  0  0
   -2.3251   -0.7671    0.5972 H   0  0  0  0  0  0  0  0  0  0  0  0
    1.4190    1.9946   -0.4831 H   0  0  0  0  0  0  0  0  0  0  0  0
    0.9426    1.7842    1.2144 H   0  0  0  0  0  0  0  0  0  0  0  0
    4.4569    0.4038    1.4278 H   0  0  0  0  0  0  0  0  0  0  0  0
    3.9845    1.9446    0.6943 H   0  0  0  0  0  0  0  0  0  0  0  0
   -1.2097    1.6477   -0.9413 H   0  0  0  0  0  0  0  0  0  0  0  0
   -3.2541    0.6169   -0.2094 H   0  0  0  0  0  0  0  0  0  0  0  0
  1  2  1  0
  1  3  1  0
  2  4  1  0
  2  6  1  0
  3  5  1  0
  3  7  1  0
  4  5  1  0
  7  8  2  3
  1 17  1  0
  1 18  1  0
  2  9  1  0
  3 10  1  0
  4 11  1  0
  4 12  1  0
  5 13  1  0
  5 14  1  0
  6 15  1  0
  6 19  1  0
  6 20  1  0
  7 21  1  0
  8 16  1  0
  8 22  1  0
M  END
