none
     RDKit          3D

 20 19  0  0  0  0  0  0  0  0999 V2000
    1.2194    1.3087    0.2825 C   0  0  0  0  0  0  0  0  0  0  0  0
    0.2450    0.1680   -0.0583 C   0  0  0  0  0  0  0  0  0  0  0  0
    0.4175   -0.9189    0.9628 C   0  0  0  0  0  0  0  0  0  0  0  0
    1.3860    2.2804   -0.8838 C   0  0  0  0  0  0  0  0  0  0  0  0
    0.8127    2.0606    1.5636 C   0  0  0  0  0  0  0  0  0  0  0  0
    0.1825    2.3547   -1.8163 C   0  0  0  0  0  0  0  0  0  0  0  0
    0.4577   -0.2557   -1.0669 H   0  0  0  0  0  0  0  0  0  0  0  0
   -0.1649   -1.7850    0.7051 H   0  0  0  0  0  0  0  0  0  0  0  0
    0.1034   -0.5853    1.9601 H   0  0  0  0  0  0  0  0  0  0  0  0
    2.2553    1.9732   -1.4779 H   0  0  0  0  0  0  0  0  0  0  0  0
    1.6225    3.2919   -0.5101 H   0  0  0  0  0  0  0  0  0  0  0  0
   -0.1852    2.4997    1.4560 H   0  0  0  0  0  0  0  0  0  0  0  0
    0.8083    1.4188    2.4528 H   0  0  0  0  0  0  0  0  0  0  0  0
    1.5181    2.8778    1.7735 H   0  0  0  0  0  0  0  0  0  0  0  0
    0.0474    1.4203   -2.3926 H   0  0  0  0  0  0  0  0  0  0  0  0
    0.3244    3.1457   -2.5443 H   0  0  0  0  0  0  0  0  0  0  0  0
    2.2182    0.8578    0.4889 H   0  0  0  0  0  0  0  0  0  0  0  0
   -0.8175    0.5204   -0.0782 H   0  0  0  0  0  0  0  0  0  0  0  0
    1.4770   -1.2253    1.0257 H   0  0  0  0  0  0  0  0  0  0  0  0
   -0.7438    2.5627   -1.2668 H   0  0  0  0  0  0  0  0  0  0  0  0
  1  2  1  0
  1  4  1  0
  1  5  1  0
  2  3  1  0
  4  6  1  0
  1 17  1  0
  2  7  1  0
  2 18  1  0
  3  8  1  0
  3  9  1  0
  3 19  1  0
  4 10  1  0
  4 11  1  0
  5 12  1  0
  5 13  1  0
  5 14  1  0
  6 15  1  0
  6 16  1  0
  6 20  1  0
M  END
