none
     RDKit          3D

 16 15  0  0  0  0  0  0  0  0999 V2000
   -1.1577    0.7452   -0.3637 C   0  0  0  0  0  0  0  0  0  0  0  0
    0.1738    2.3364   -1.8146 C   0  0  0  0  0  0  0  0  0  0  0  0
   -1.1587    2.0462   -1.1319 C   0  0  0  0  0  0  0  0  0  0  0  0
   -2.2977    0.1541    0.0254 C   0  0  0  0  0  0  0  0  0  0  0  0
   -3.6065    0.7045   -0.2491 C   0  0  0  0  0  0  0  0  0  0  0  0
   -4.7440    0.1211    0.1352 C   0  0  0  0  0  0  0  0  0  0  0  0
    0.4289    1.5483   -2.5312 H   0  0  0  0  0  0  0  0  0  0  0  0
    0.1227    3.2871   -2.3580 H   0  0  0  0  0  0  0  0  0  0  0  0
   -1.3857    2.8697   -0.4423 H   0  0  0  0  0  0  0  0  0  0  0  0
   -1.9225    2.0353   -1.9215 H   0  0  0  0  0  0  0  0  0  0  0  0
   -2.2490   -0.7780    0.5829 H   0  0  0  0  0  0  0  0  0  0  0  0
   -3.6890    1.6517   -0.7780 H   0  0  0  0  0  0  0  0  0  0  0  0
   -0.2017    0.2903   -0.1027 H   0  0  0  0  0  0  0  0  0  0  0  0
    0.9838    2.4082   -1.0814 H   0  0  0  0  0  0  0  0  0  0  0  0
   -5.7029    0.5815   -0.0877 H   0  0  0  0  0  0  0  0  0  0  0  0
   -4.7573   -0.8191    0.6763 H   0  0  0  0  0  0  0  0  0  0  0  0
  1  3  1  0
  1  4  2  0
  2  3  1  0
  4  5  1  0
  5  6  2  0
  1 13  1  0
  2  7  1  0
  2  8  1  0
  2 14  1  0
  3  9  1  0
  3 10  1  0
  4 11  1  0
  5 12  1  0
  6 15  1  0
  6 16  1  0
M  END
