none
     RDKit          3D

 25 24  0  0  0  0  0  0  0  0999 V2000
    1.2325    1.2583    0.2839 C   0  0  0  0  0  0  0  0  0  0  0  0
    2.4979    0.4170    0.5584 C   0  0  0  0  0  0  0  0  0  0  0  0
    0.1914    0.1950   -0.0985 C   0  0  0  0  0  0  0  0  0  0  0  0
    1.4077    2.2884   -0.8597 C   0  0  0  0  0  0  0  0  0  0  0  0
    3.6358    1.0920    1.2716 C   0  0  0  0  0  0  0  0  0  0  0  0
   -1.1621    0.7392   -0.3674 C   0  0  0  0  0  0  0  0  0  0  0  0
   -2.2972    0.1537    0.0309 C   0  0  0  0  0  0  0  0  0  0  0  0
   -3.6064    0.7073   -0.2532 C   0  0  0  0  0  0  0  0  0  0  0  0
   -4.7404    0.1244    0.1334 C   0  0  0  0  0  0  0  0  0  0  0  0
    2.8567    0.0080   -0.3960 H   0  0  0  0  0  0  0  0  0  0  0  0
    0.5453   -0.3349   -1.0067 H   0  0  0  0  0  0  0  0  0  0  0  0
    1.6901    1.7749   -1.7961 H   0  0  0  0  0  0  0  0  0  0  0  0
    2.1867    3.0015   -0.6219 H   0  0  0  0  0  0  0  0  0  0  0  0
    3.3213    1.4584    2.2508 H   0  0  0  0  0  0  0  0  0  0  0  0
   -2.2589   -0.7774    0.5849 H   0  0  0  0  0  0  0  0  0  0  0  0
   -3.6514    1.6439   -0.8041 H   0  0  0  0  0  0  0  0  0  0  0  0
    0.9142    1.8042    1.2063 H   0  0  0  0  0  0  0  0  0  0  0  0
    2.2135   -0.4568    1.1732 H   0  0  0  0  0  0  0  0  0  0  0  0
    0.1411   -0.5720    0.6993 H   0  0  0  0  0  0  0  0  0  0  0  0
    0.4884    2.8719   -1.0568 H   0  0  0  0  0  0  0  0  0  0  0  0
    4.4597    0.3713    1.4354 H   0  0  0  0  0  0  0  0  0  0  0  0
    4.0268    1.9212    0.6900 H   0  0  0  0  0  0  0  0  0  0  0  0
   -1.2245    1.6455   -0.9578 H   0  0  0  0  0  0  0  0  0  0  0  0
   -5.7028    0.5723   -0.1061 H   0  0  0  0  0  0  0  0  0  0  0  0
   -4.7583   -0.8114    0.6879 H   0  0  0  0  0  0  0  0  0  0  0  0
  1  2  1  0
  1  3  1  0
  1  4  1  0
  2  5  1  0
  3  6  1  0
  6  7  2  0
  7  8  1  0
  8  9  2  0
  1 17  1  0
  2 10  1  0
  2 18  1  0
  3 11  1  0
  3 19  1  0
  4 12  1  0
  4 13  1  0
  4 20  1  0
  5 14  1  0
  5 21  1  0
  5 22  1  0
  6 23  1  0
  7 15  1  0
  8 16  1  0
  9 24  1  0
  9 25  1  0
M  END
