none
     RDKit          3D

 22 21  0  0  0  0  0  0  0  0999 V2000
    0.2227    0.1827   -0.0961 C   0  0  0  0  0  0  0  0  0  0  0  0
    0.4303   -0.9003    0.9663 C   0  0  0  0  0  0  0  0  0  0  0  0
   -1.1545    0.7353   -0.3592 C   0  0  0  0  0  0  0  0  0  0  0  0
   -2.2986    0.1554    0.0277 C   0  0  0  0  0  0  0  0  0  0  0  0
   -3.6010    0.7060   -0.2531 C   0  0  0  0  0  0  0  0  0  0  0  0
   -4.7478    0.1241    0.1330 C   0  0  0  0  0  0  0  0  0  0  0  0
   -6.0979    0.7044   -0.2096 C   0  0  0  0  0  0  0  0  0  0  0  0
   -7.0537   -0.3323   -0.8005 C   0  0  0  0  0  0  0  0  0  0  0  0
    0.6202   -0.1857   -1.0486 H   0  0  0  0  0  0  0  0  0  0  0  0
   -0.0829   -1.8272    0.6946 H   0  0  0  0  0  0  0  0  0  0  0  0
    0.0618   -0.5706    1.9429 H   0  0  0  0  0  0  0  0  0  0  0  0
   -2.2736   -0.7805    0.5795 H   0  0  0  0  0  0  0  0  0  0  0  0
   -3.6344    1.6317   -0.8246 H   0  0  0  0  0  0  0  0  0  0  0  0
   -5.9991    1.5397   -0.9160 H   0  0  0  0  0  0  0  0  0  0  0  0
   -6.5412    1.1092    0.7069 H   0  0  0  0  0  0  0  0  0  0  0  0
   -8.0240    0.1281   -1.0196 H   0  0  0  0  0  0  0  0  0  0  0  0
    0.8518    1.0315    0.1903 H   0  0  0  0  0  0  0  0  0  0  0  0
    1.5000   -1.1266    1.0667 H   0  0  0  0  0  0  0  0  0  0  0  0
   -1.1835    1.6672   -0.9279 H   0  0  0  0  0  0  0  0  0  0  0  0
   -4.7350   -0.7966    0.7156 H   0  0  0  0  0  0  0  0  0  0  0  0
   -6.6560   -0.7492   -1.7317 H   0  0  0  0  0  0  0  0  0  0  0  0
   -7.2217   -1.1582   -0.1002 H   0  0  0  0  0  0  0  0  0  0  0  0
  1  2  1  0
  1  3  1  0
  3  4  2  0
  4  5  1  0
  5  6  2  0
  6  7  1  0
  7  8  1  0
  1  9  1  0
  1 17  1  0
  2 10  1  0
  2 11  1  0
  2 18  1  0
  3 19  1  0
  4 12  1  0
  5 13  1  0
  6 20  1  0
  7 14  1  0
  7 15  1  0
  8 16  1  0
  8 21  1  0
  8 22  1  0
M  END
