none
     RDKit          3D

 22 22  0  0  0  0  0  0  0  0999 V2000
    1.2221    1.3234    0.2697 C   0  0  0  0  0  0  0  0  0  0  0  0
    0.2799    0.1640   -0.0869 C   0  0  0  0  0  0  0  0  0  0  0  0
    0.3854   -0.9398    0.9687 C   0  0  0  0  0  0  0  0  0  0  0  0
    1.3816    2.3049   -0.8927 C   0  0  0  0  0  0  0  0  0  0  0  0
   -1.1087    0.7304   -0.3521 C   0  0  0  0  0  0  0  0  0  0  0  0
    0.1732    2.3354   -1.8325 C   0  0  0  0  0  0  0  0  0  0  0  0
   -1.1417    2.0468   -1.1081 C   0  0  0  0  0  0  0  0  0  0  0  0
   -2.2605    0.1553    0.0347 C   0  0  0  0  0  0  0  0  0  0  0  0
    0.6282   -0.2812   -1.0287 H   0  0  0  0  0  0  0  0  0  0  0  0
   -0.2135   -1.8108    0.6932 H   0  0  0  0  0  0  0  0  0  0  0  0
    0.0494   -0.5869    1.9486 H   0  0  0  0  0  0  0  0  0  0  0  0
    2.2748    2.0549   -1.4819 H   0  0  0  0  0  0  0  0  0  0  0  0
    1.5601    3.3096   -0.4859 H   0  0  0  0  0  0  0  0  0  0  0  0
    0.3122    1.5895   -2.6257 H   0  0  0  0  0  0  0  0  0  0  0  0
    0.1163    3.3088   -2.3339 H   0  0  0  0  0  0  0  0  0  0  0  0
   -1.3375    2.8543   -0.3875 H   0  0  0  0  0  0  0  0  0  0  0  0
   -1.9629    2.0487   -1.8345 H   0  0  0  0  0  0  0  0  0  0  0  0
   -2.2894   -0.7869    0.5754 H   0  0  0  0  0  0  0  0  0  0  0  0
    2.2165    0.9449    0.5506 H   0  0  0  0  0  0  0  0  0  0  0  0
    0.8405    1.8572    1.1521 H   0  0  0  0  0  0  0  0  0  0  0  0
    1.4234   -1.2816    1.0722 H   0  0  0  0  0  0  0  0  0  0  0  0
   -3.2196    0.6158   -0.1831 H   0  0  0  0  0  0  0  0  0  0  0  0
  1  2  1  0
  1  4  1  0
  2  3  1  0
  2  5  1  0
  4  6  1  0
  5  7  1  0
  5  8  2  3
  6  7  1  0
  1 19  1  0
  1 20  1  0
  2  9  1  0
  3 10  1  0
  3 11  1  0
  3 21  1  0
  4 12  1  0
  4 13  1  0
  6 14  1  0
  6 15  1  0
  7 16  1  0
  7 17  1  0
  8 18  1  0
  8 22  1  0
M  END
