none
     RDKit          3D

 23 22  0  0  0  0  0  0  0  0999 V2000
    0.2170    0.1792   -0.0947 C   0  0  0  0  0  0  0  0  0  0  0  0
   -1.1535    0.7436   -0.3630 C   0  0  0  0  0  0  0  0  0  0  0  0
   -1.1644    2.0457   -1.1303 C   0  0  0  0  0  0  0  0  0  0  0  0
   -2.2949    0.1561    0.0228 C   0  0  0  0  0  0  0  0  0  0  0  0
   -3.6028    0.7060   -0.2508 C   0  0  0  0  0  0  0  0  0  0  0  0
   -4.7445    0.1201    0.1365 C   0  0  0  0  0  0  0  0  0  0  0  0
   -4.7841   -1.1350    0.8767 C   0  0  0  0  0  0  0  0  0  0  0  0
   -5.7282   -2.1734    0.3293 C   0  0  0  0  0  0  0  0  0  0  0  0
   -4.0582   -1.3505    1.9876 C   0  0  0  0  0  0  0  0  0  0  0  0
    0.7340   -0.0277   -1.0378 H   0  0  0  0  0  0  0  0  0  0  0  0
   -1.5084    2.8685   -0.4941 H   0  0  0  0  0  0  0  0  0  0  0  0
   -1.7920    1.9810   -2.0263 H   0  0  0  0  0  0  0  0  0  0  0  0
   -2.2022   -0.8099    0.5068 H   0  0  0  0  0  0  0  0  0  0  0  0
   -3.6857    1.6386   -0.8018 H   0  0  0  0  0  0  0  0  0  0  0  0
   -5.4603   -2.4337   -0.7011 H   0  0  0  0  0  0  0  0  0  0  0  0
   -5.7045   -3.0953    0.9196 H   0  0  0  0  0  0  0  0  0  0  0  0
   -4.1140   -2.2938    2.5206 H   0  0  0  0  0  0  0  0  0  0  0  0
   -3.4255   -0.5848    2.4282 H   0  0  0  0  0  0  0  0  0  0  0  0
    0.8144    0.8909    0.4851 H   0  0  0  0  0  0  0  0  0  0  0  0
    0.1689   -0.7561    0.4722 H   0  0  0  0  0  0  0  0  0  0  0  0
   -0.1568    2.3034   -1.4765 H   0  0  0  0  0  0  0  0  0  0  0  0
   -5.6998    0.5684   -0.1280 H   0  0  0  0  0  0  0  0  0  0  0  0
   -6.7578   -1.8003    0.3386 H   0  0  0  0  0  0  0  0  0  0  0  0
  1  2  1  0
  2  3  1  0
  2  4  2  0
  4  5  1  0
  5  6  2  0
  6  7  1  0
  7  8  1  0
  7  9  2  0
  1 10  1  0
  1 19  1  0
  1 20  1  0
  3 11  1  0
  3 12  1  0
  3 21  1  0
  4 13  1  0
  5 14  1  0
  6 22  1  0
  8 15  1  0
  8 16  1  0
  8 23  1  0
  9 17  1  0
  9 18  1  0
M  END
