none
     RDKit          3D

  5  4  0  0  0  0  0  0  0  0999 V2000
    1.2287    1.2867    0.2961 C   0  0  0  0  0  0  0  0  0  0  0  0
    2.1649    0.7571    0.4855 H   0  0  0  0  0  0  0  0  0  0  0  0
    0.4512    0.5676    0.0293 H   0  0  0  0  0  0  0  0  0  0  0  0
    1.3694    1.9923   -0.5256 H   0  0  0  0  0  0  0  0  0  0  0  0
    0.9293    1.8298    1.1952 H   0  0  0  0  0  0  0  0  0  0  0  0
  1  2  1  0
  1  3  1  0
  1  4  1  0
  1  5  1  0
M  END
