none
     RDKit          3D

 19 19  0  0  0  0  0  0  0  0999 V2000
    1.2319    1.2588    0.3045 C   0  0  0  0  0  0  0  0  0  0  0  0
    2.4762    0.4155    0.5578 C   0  0  0  0  0  0  0  0  0  0  0  0
    0.2200    0.1843   -0.1031 C   0  0  0  0  0  0  0  0  0  0  0  0
    1.9335   -0.8093    1.3045 C   0  0  0  0  0  0  0  0  0  0  0  0
    0.4362   -0.8911    0.9657 C   0  0  0  0  0  0  0  0  0  0  0  0
   -1.1550    0.7250   -0.3673 C   0  0  0  0  0  0  0  0  0  0  0  0
   -2.3024    0.1603    0.0297 C   0  0  0  0  0  0  0  0  0  0  0  0
    2.9289    0.1035   -0.3918 H   0  0  0  0  0  0  0  0  0  0  0  0
    0.5557   -0.2344   -1.0662 H   0  0  0  0  0  0  0  0  0  0  0  0
    2.4657   -1.7180    1.0037 H   0  0  0  0  0  0  0  0  0  0  0  0
    2.0616   -0.6880    2.3871 H   0  0  0  0  0  0  0  0  0  0  0  0
    0.1621   -1.8862    0.5980 H   0  0  0  0  0  0  0  0  0  0  0  0
   -0.1551   -0.6862    1.8675 H   0  0  0  0  0  0  0  0  0  0  0  0
   -2.3261   -0.7686    0.5927 H   0  0  0  0  0  0  0  0  0  0  0  0
    1.4079    1.9912   -0.4919 H   0  0  0  0  0  0  0  0  0  0  0  0
    0.9201    1.7862    1.2157 H   0  0  0  0  0  0  0  0  0  0  0  0
    3.2331    0.9512    1.1385 H   0  0  0  0  0  0  0  0  0  0  0  0
   -1.2087    1.6447   -0.9503 H   0  0  0  0  0  0  0  0  0  0  0  0
   -3.2570    0.6162   -0.2147 H   0  0  0  0  0  0  0  0  0  0  0  0
  1  2  1  0
  1  3  1  0
  2  4  1  0
  3  5  1  0
  3  6  1  0
  4  5  1  0
  6  7  2  3
  1 15  1  0
  1 16  1  0
  2  8  1  0
  2 17  1  0
  3  9  1  0
  4 10  1  0
  4 11  1  0
  5 12  1  0
  5 13  1  0
  6 18  1  0
  7 14  1  0
  7 19  1  0
M  END
