none
     RDKit          3D

 23 22  0  0  0  0  0  0  0  0999 V2000
    1.2351    1.2567    0.2855 C   0  0  0  0  0  0  0  0  0  0  0  0
    2.4913    0.4150    0.5559 C   0  0  0  0  0  0  0  0  0  0  0  0
    0.1973    0.2004   -0.0979 C   0  0  0  0  0  0  0  0  0  0  0  0
    1.3966    2.2775   -0.8611 C   0  0  0  0  0  0  0  0  0  0  0  0
    3.6472    1.0846    1.2663 C   0  0  0  0  0  0  0  0  0  0  0  0
    4.8526    0.1400    1.4580 C   0  0  0  0  0  0  0  0  0  0  0  0
    5.4328   -0.4531    0.1757 C   0  0  0  0  0  0  0  0  0  0  0  0
    2.8316    0.0196   -0.4096 H   0  0  0  0  0  0  0  0  0  0  0  0
    0.5499   -0.4011   -0.9614 H   0  0  0  0  0  0  0  0  0  0  0  0
    1.7254    1.7761   -1.7846 H   0  0  0  0  0  0  0  0  0  0  0  0
    2.1335    3.0499   -0.6193 H   0  0  0  0  0  0  0  0  0  0  0  0
    3.3130    1.4322    2.2585 H   0  0  0  0  0  0  0  0  0  0  0  0
    4.5732   -0.6798    2.1284 H   0  0  0  0  0  0  0  0  0  0  0  0
    5.6435    0.7061    1.9651 H   0  0  0  0  0  0  0  0  0  0  0  0
    5.6608    0.3278   -0.5559 H   0  0  0  0  0  0  0  0  0  0  0  0
    4.7480   -1.1749   -0.2857 H   0  0  0  0  0  0  0  0  0  0  0  0
    0.9033    1.7967    1.2059 H   0  0  0  0  0  0  0  0  0  0  0  0
    2.2069   -0.4650    1.1599 H   0  0  0  0  0  0  0  0  0  0  0  0
    0.0254   -0.5038    0.7375 H   0  0  0  0  0  0  0  0  0  0  0  0
   -0.7448    0.6382   -0.3581 H   0  0  0  0  0  0  0  0  0  0  0  0
    0.4428    2.7836   -1.0859 H   0  0  0  0  0  0  0  0  0  0  0  0
    3.9650    1.9616    0.7094 H   0  0  0  0  0  0  0  0  0  0  0  0
    6.3661   -0.9919    0.3974 H   0  0  0  0  0  0  0  0  0  0  0  0
  1  2  1  0
  1  3  1  0
  1  4  1  0
  2  5  1  0
  5  6  1  0
  6  7  1  0
  1 17  1  0
  2  8  1  0
  2 18  1  0
  3  9  1  0
  3 19  1  0
  3 20  1  0
  4 10  1  0
  4 11  1  0
  4 21  1  0
  5 12  1  0
  5 22  1  0
  6 13  1  0
  6 14  1  0
  7 15  1  0
  7 16  1  0
  7 23  1  0
M  END
