none
     RDKit          3D

 17 16  0  0  0  0  0  0  0  0999 V2000
    1.2334    1.2845    0.2986 C   0  0  0  0  0  0  0  0  0  0  0  0
    2.4759    0.4062    0.5518 C   0  0  0  0  0  0  0  0  0  0  0  0
    3.6441    1.0838    1.2741 C   0  0  0  0  0  0  0  0  0  0  0  0
    4.8496    0.1407    1.4555 C   0  0  0  0  0  0  0  0  0  0  0  0
    4.0858    2.3321    0.5090 C   0  0  0  0  0  0  0  0  0  0  0  0
    2.8184    0.0138   -0.4125 H   0  0  0  0  0  0  0  0  0  0  0  0
    3.3071    1.3909    2.2722 H   0  0  0  0  0  0  0  0  0  0  0  0
    4.5623   -0.7516    2.0202 H   0  0  0  0  0  0  0  0  0  0  0  0
    5.6555    0.6423    2.0056 H   0  0  0  0  0  0  0  0  0  0  0  0
    3.2994    3.0938    0.4974 H   0  0  0  0  0  0  0  0  0  0  0  0
    4.9623    2.7848    0.9824 H   0  0  0  0  0  0  0  0  0  0  0  0
    4.3485    2.0929   -0.5278 H   0  0  0  0  0  0  0  0  0  0  0  0
    0.4209    0.6693   -0.1070 H   0  0  0  0  0  0  0  0  0  0  0  0
    1.4426    2.0757   -0.4295 H   0  0  0  0  0  0  0  0  0  0  0  0
    0.8833    1.7442    1.2278 H   0  0  0  0  0  0  0  0  0  0  0  0
    2.1588   -0.4602    1.1429 H   0  0  0  0  0  0  0  0  0  0  0  0
    5.2489   -0.1823    0.4873 H   0  0  0  0  0  0  0  0  0  0  0  0
  1  2  1  0
  2  3  1  0
  3  4  1  0
  3  5  1  0
  1 13  1  0
  1 14  1  0
  1 15  1  0
  2  6  1  0
  2 16  1  0
  3  7  1  0
  4  8  1  0
  4  9  1  0
  4 17  1  0
  5 10  1  0
  5 11  1  0
  5 12  1  0
M  END
