none
     RDKit          3D

 21 20  0  0  0  0  0  0  0  0999 V2000
    1.2374    1.1946    0.3088 C   0  0  0  0  0  0  0  0  0  0  0  0
    2.5093    0.3971    0.5653 C   0  0  0  0  0  0  0  0  0  0  0  0
    0.1759    0.1918   -0.1166 C   0  0  0  0  0  0  0  0  0  0  0  0
    3.6407    1.1243    1.2638 C   0  0  0  0  0  0  0  0  0  0  0  0
   -1.1804    0.7639   -0.3722 C   0  0  0  0  0  0  0  0  0  0  0  0
    4.1022    2.3469    0.5136 C   0  0  0  0  0  0  0  0  0  0  0  0
   -2.2997    0.1682    0.0355 C   0  0  0  0  0  0  0  0  0  0  0  0
    2.8632    0.0133   -0.3990 H   0  0  0  0  0  0  0  0  0  0  0  0
    0.5280   -0.3135   -1.0213 H   0  0  0  0  0  0  0  0  0  0  0  0
    3.3473    1.3789    2.2857 H   0  0  0  0  0  0  0  0  0  0  0  0
    3.3163    3.1075    0.5105 H   0  0  0  0  0  0  0  0  0  0  0  0
    4.9925    2.7697    0.9888 H   0  0  0  0  0  0  0  0  0  0  0  0
    4.3418    2.0961   -0.5249 H   0  0  0  0  0  0  0  0  0  0  0  0
   -2.2985   -0.7690    0.5877 H   0  0  0  0  0  0  0  0  0  0  0  0
    1.3911    1.9410   -0.4779 H   0  0  0  0  0  0  0  0  0  0  0  0
    0.9271    1.7620    1.1904 H   0  0  0  0  0  0  0  0  0  0  0  0
    2.2513   -0.4738    1.1755 H   0  0  0  0  0  0  0  0  0  0  0  0
    0.1126   -0.5717    0.6655 H   0  0  0  0  0  0  0  0  0  0  0  0
    4.4737    0.4132    1.3510 H   0  0  0  0  0  0  0  0  0  0  0  0
   -1.2216    1.6790   -0.9522 H   0  0  0  0  0  0  0  0  0  0  0  0
   -3.2666    0.6032   -0.2113 H   0  0  0  0  0  0  0  0  0  0  0  0
  1  2  1  0
  1  3  1  0
  2  4  1  0
  3  5  1  0
  4  6  1  0
  5  7  2  3
  1 15  1  0
  1 16  1  0
  2  8  1  0
  2 17  1  0
  3  9  1  0
  3 18  1  0
  4 10  1  0
  4 19  1  0
  5 20  1  0
  6 11  1  0
  6 12  1  0
  6 13  1  0
  7 14  1  0
  7 21  1  0
M  END
