none
     RDKit          3D

 23 22  0  0  0  0  0  0  0  0999 V2000
    0.2228    0.1824   -0.0968 C   0  0  0  0  0  0  0  0  0  0  0  0
    0.4304   -0.9003    0.9663 C   0  0  0  0  0  0  0  0  0  0  0  0
   -1.1538    0.7385   -0.3582 C   0  0  0  0  0  0  0  0  0  0  0  0
   -2.2921    0.1577    0.0189 C   0  0  0  0  0  0  0  0  0  0  0  0
   -3.6017    0.7072   -0.2511 C   0  0  0  0  0  0  0  0  0  0  0  0
   -4.7427    0.1189    0.1377 C   0  0  0  0  0  0  0  0  0  0  0  0
   -4.7870   -1.1356    0.8763 C   0  0  0  0  0  0  0  0  0  0  0  0
   -5.7277   -2.1730    0.3296 C   0  0  0  0  0  0  0  0  0  0  0  0
   -4.0614   -1.3514    1.9901 C   0  0  0  0  0  0  0  0  0  0  0  0
    0.6203   -0.1846   -1.0491 H   0  0  0  0  0  0  0  0  0  0  0  0
   -0.0752   -1.8303    0.6908 H   0  0  0  0  0  0  0  0  0  0  0  0
    0.0540   -0.5738    1.9409 H   0  0  0  0  0  0  0  0  0  0  0  0
   -2.2167   -0.8154    0.4955 H   0  0  0  0  0  0  0  0  0  0  0  0
   -3.6528    1.6391   -0.8085 H   0  0  0  0  0  0  0  0  0  0  0  0
   -5.4474   -2.4458   -0.6939 H   0  0  0  0  0  0  0  0  0  0  0  0
   -5.7183   -3.0900    0.9294 H   0  0  0  0  0  0  0  0  0  0  0  0
   -4.1154   -2.2941    2.5196 H   0  0  0  0  0  0  0  0  0  0  0  0
   -3.4254   -0.5854    2.4293 H   0  0  0  0  0  0  0  0  0  0  0  0
    0.8514    1.0313    0.1913 H   0  0  0  0  0  0  0  0  0  0  0  0
    1.5006   -1.1208    1.0727 H   0  0  0  0  0  0  0  0  0  0  0  0
   -1.1819    1.6871   -0.8950 H   0  0  0  0  0  0  0  0  0  0  0  0
   -5.6995    0.5677   -0.1313 H   0  0  0  0  0  0  0  0  0  0  0  0
   -6.7560   -1.7943    0.3199 H   0  0  0  0  0  0  0  0  0  0  0  0
  1  2  1  0
  1  3  1  0
  3  4  2  0
  4  5  1  0
  5  6  2  0
  6  7  1  0
  7  8  1  0
  7  9  2  0
  1 10  1  0
  1 19  1  0
  2 11  1  0
  2 12  1  0
  2 20  1  0
  3 21  1  0
  4 13  1  0
  5 14  1  0
  6 22  1  0
  8 15  1  0
  8 16  1  0
  8 23  1  0
  9 17  1  0
  9 18  1  0
M  END
