none
     RDKit          3D

  9  8  0  0  0  0  0  0  0  0999 V2000
   -6.6341   -0.6827   -2.1104 O   0  0  0  0  0  0  0  0  0  0  0  0
   -7.0503   -0.3280   -0.7998 C   0  0  0  0  0  0  0  0  0  0  0  0
   -6.1029    0.6996   -0.2162 C   0  0  0  0  0  0  0  0  0  0  0  0
   -5.7366   -1.0510   -2.0434 H   0  0  0  0  0  0  0  0  0  0  0  0
   -8.0642    0.0779   -0.8620 H   0  0  0  0  0  0  0  0  0  0  0  0
   -6.0615    1.5902   -0.8518 H   0  0  0  0  0  0  0  0  0  0  0  0
   -6.4193    0.9959    0.7877 H   0  0  0  0  0  0  0  0  0  0  0  0
   -7.0775   -1.2316   -0.1833 H   0  0  0  0  0  0  0  0  0  0  0  0
   -5.0849    0.3002   -0.1612 H   0  0  0  0  0  0  0  0  0  0  0  0
  1  2  1  0
  2  3  1  0
  1  4  1  0
  2  5  1  0
  2  8  1  0
  3  6  1  0
  3  7  1  0
  3  9  1  0
M  END
