none
     RDKit          3D

 23 22  0  0  0  0  0  0  0  0999 V2000
    2.4674    0.4035    0.5610 C   0  0  0  0  0  0  0  0  0  0  0  0
    1.9325   -0.8092    1.3048 C   0  0  0  0  0  0  0  0  0  0  0  0
    3.6537    1.0686    1.2681 C   0  0  0  0  0  0  0  0  0  0  0  0
    4.8599    0.1394    1.4629 C   0  0  0  0  0  0  0  0  0  0  0  0
    5.4352   -0.4582    0.1617 C   0  0  0  0  0  0  0  0  0  0  0  0
    6.5940   -1.4389    0.4220 C   0  0  0  0  0  0  0  0  0  0  0  0
    7.2127   -1.9796   -0.8642 C   0  0  0  0  0  0  0  0  0  0  0  0
    2.7506    0.1226   -0.4654 H   0  0  0  0  0  0  0  0  0  0  0  0
    2.6508   -1.6394    1.3146 H   0  0  0  0  0  0  0  0  0  0  0  0
    1.6848   -0.5592    2.3454 H   0  0  0  0  0  0  0  0  0  0  0  0
    3.3185    1.4353    2.2576 H   0  0  0  0  0  0  0  0  0  0  0  0
    4.5863   -0.6700    2.1454 H   0  0  0  0  0  0  0  0  0  0  0  0
    5.6449    0.7103    1.9628 H   0  0  0  0  0  0  0  0  0  0  0  0
    5.7852    0.3555   -0.4778 H   0  0  0  0  0  0  0  0  0  0  0  0
    4.6584   -0.9952   -0.3837 H   0  0  0  0  0  0  0  0  0  0  0  0
    6.2275   -2.2825    1.0213 H   0  0  0  0  0  0  0  0  0  0  0  0
    7.3712   -0.9406    1.0068 H   0  0  0  0  0  0  0  0  0  0  0  0
    8.0329   -2.6772   -0.6313 H   0  0  0  0  0  0  0  0  0  0  0  0
    1.6672    1.1411    0.4607 H   0  0  0  0  0  0  0  0  0  0  0  0
    1.0196   -1.1750    0.8219 H   0  0  0  0  0  0  0  0  0  0  0  0
    3.9568    1.9589    0.7019 H   0  0  0  0  0  0  0  0  0  0  0  0
    7.6286   -1.1698   -1.4766 H   0  0  0  0  0  0  0  0  0  0  0  0
    6.4757   -2.5210   -1.4685 H   0  0  0  0  0  0  0  0  0  0  0  0
  1  2  1  0
  1  3  1  0
  3  4  1  0
  4  5  1  0
  5  6  1  0
  6  7  1  0
  1  8  1  0
  1 19  1  0
  2  9  1  0
  2 10  1  0
  2 20  1  0
  3 11  1  0
  3 21  1  0
  4 12  1  0
  4 13  1  0
  5 14  1  0
  5 15  1  0
  6 16  1  0
  6 17  1  0
  7 18  1  0
  7 22  1  0
  7 23  1  0
M  END
