none
     RDKit          3D

 24 24  0  0  0  0  0  0  0  0999 V2000
    1.2311    1.2805    0.2858 C   0  0  0  0  0  0  0  0  0  0  0  0
    2.4790    0.4068    0.5527 C   0  0  0  0  0  0  0  0  0  0  0  0
    0.2164    0.1836   -0.0888 C   0  0  0  0  0  0  0  0  0  0  0  0
    1.9276   -0.8165    1.3118 C   0  0  0  0  0  0  0  0  0  0  0  0
    0.4375   -0.8984    0.9655 C   0  0  0  0  0  0  0  0  0  0  0  0
    1.3945    2.2830   -0.8665 C   0  0  0  0  0  0  0  0  0  0  0  0
    3.6452    1.0798    1.2761 C   0  0  0  0  0  0  0  0  0  0  0  0
    4.8493    0.1448    1.4551 C   0  0  0  0  0  0  0  0  0  0  0  0
    2.8546    0.0535   -0.4179 H   0  0  0  0  0  0  0  0  0  0  0  0
    0.4335   -0.2223   -1.0911 H   0  0  0  0  0  0  0  0  0  0  0  0
    2.4546   -1.7294    1.0075 H   0  0  0  0  0  0  0  0  0  0  0  0
    2.0507   -0.7146    2.3966 H   0  0  0  0  0  0  0  0  0  0  0  0
    0.1483   -1.8913    0.6032 H   0  0  0  0  0  0  0  0  0  0  0  0
   -0.1652   -0.6839    1.8594 H   0  0  0  0  0  0  0  0  0  0  0  0
    1.7376    1.7853   -1.7843 H   0  0  0  0  0  0  0  0  0  0  0  0
    2.1268    3.0557   -0.6147 H   0  0  0  0  0  0  0  0  0  0  0  0
    3.3189    1.4390    2.2587 H   0  0  0  0  0  0  0  0  0  0  0  0
    4.6053   -0.7075    2.0988 H   0  0  0  0  0  0  0  0  0  0  0  0
    5.6790    0.6879    1.9213 H   0  0  0  0  0  0  0  0  0  0  0  0
    0.9083    1.8017    1.2069 H   0  0  0  0  0  0  0  0  0  0  0  0
   -0.8122    0.5515   -0.0909 H   0  0  0  0  0  0  0  0  0  0  0  0
    0.4409    2.7798   -1.0907 H   0  0  0  0  0  0  0  0  0  0  0  0
    3.9694    1.9572    0.7055 H   0  0  0  0  0  0  0  0  0  0  0  0
    5.1965   -0.2404    0.4892 H   0  0  0  0  0  0  0  0  0  0  0  0
  1  2  1  0
  1  3  1  0
  1  6  1  0
  2  4  1  0
  2  7  1  0
  3  5  1  0
  4  5  1  0
  7  8  1  0
  1 20  1  0
  2  9  1  0
  3 10  1  0
  3 21  1  0
  4 11  1  0
  4 12  1  0
  5 13  1  0
  5 14  1  0
  6 15  1  0
  6 16  1  0
  6 22  1  0
  7 17  1  0
  7 23  1  0
  8 18  1  0
  8 19  1  0
  8 24  1  0
M  END
