none
     RDKit          3D

 14 13  0  0  0  0  0  0  0  0999 V2000
    2.4766    0.4050    0.5554 C   0  0  0  0  0  0  0  0  0  0  0  0
    1.9339   -0.8131    1.3101 C   0  0  0  0  0  0  0  0  0  0  0  0
    4.0847    2.3294    0.5100 C   0  0  0  0  0  0  0  0  0  0  0  0
    3.6420    1.0813    1.2733 C   0  0  0  0  0  0  0  0  0  0  0  0
    2.7959    0.0903   -0.4460 H   0  0  0  0  0  0  0  0  0  0  0  0
    2.7115   -1.5739    1.4355 H   0  0  0  0  0  0  0  0  0  0  0  0
    1.5667   -0.5271    2.3018 H   0  0  0  0  0  0  0  0  0  0  0  0
    3.2673    3.0560    0.4371 H   0  0  0  0  0  0  0  0  0  0  0  0
    4.9217    2.8107    1.0247 H   0  0  0  0  0  0  0  0  0  0  0  0
    4.4099    2.0746   -0.5049 H   0  0  0  0  0  0  0  0  0  0  0  0
    3.3443    1.3648    2.2898 H   0  0  0  0  0  0  0  0  0  0  0  0
    1.6606    1.1253    0.4202 H   0  0  0  0  0  0  0  0  0  0  0  0
    1.1019   -1.2627    0.7545 H   0  0  0  0  0  0  0  0  0  0  0  0
    4.4853    0.3851    1.3600 H   0  0  0  0  0  0  0  0  0  0  0  0
  1  2  1  0
  1  4  1  0
  3  4  1  0
  1  5  1  0
  1 12  1  0
  2  6  1  0
  2  7  1  0
  2 13  1  0
  3  8  1  0
  3  9  1  0
  3 10  1  0
  4 11  1  0
  4 14  1  0
M  END
