none
     RDKit          3D

 25 25  0  0  0  0  0  0  0  0999 V2000
    1.2325    1.2782    0.2995 C   0  0  0  0  0  0  0  0  0  0  0  0
    2.4794    0.4074    0.5522 C   0  0  0  0  0  0  0  0  0  0  0  0
    0.2186    0.1860   -0.0976 C   0  0  0  0  0  0  0  0  0  0  0  0
    1.9285   -0.8170    1.3110 C   0  0  0  0  0  0  0  0  0  0  0  0
    0.4347   -0.8993    0.9676 C   0  0  0  0  0  0  0  0  0  0  0  0
    3.6442    1.0797    1.2758 C   0  0  0  0  0  0  0  0  0  0  0  0
   -1.1546    0.7362   -0.3597 C   0  0  0  0  0  0  0  0  0  0  0  0
    4.8498    0.1439    1.4555 C   0  0  0  0  0  0  0  0  0  0  0  0
   -2.2984    0.1570    0.0259 C   0  0  0  0  0  0  0  0  0  0  0  0
    2.8471    0.0634   -0.4234 H   0  0  0  0  0  0  0  0  0  0  0  0
    0.5510   -0.2349   -1.0599 H   0  0  0  0  0  0  0  0  0  0  0  0
    2.4544   -1.7293    1.0057 H   0  0  0  0  0  0  0  0  0  0  0  0
    2.0492   -0.7147    2.3963 H   0  0  0  0  0  0  0  0  0  0  0  0
    0.1597   -1.8955    0.6012 H   0  0  0  0  0  0  0  0  0  0  0  0
   -0.1580   -0.6988    1.8682 H   0  0  0  0  0  0  0  0  0  0  0  0
    3.3217    1.4404    2.2594 H   0  0  0  0  0  0  0  0  0  0  0  0
    4.6059   -0.7076    2.1001 H   0  0  0  0  0  0  0  0  0  0  0  0
    5.6796    0.6877    1.9202 H   0  0  0  0  0  0  0  0  0  0  0  0
   -2.3168   -0.7753    0.5823 H   0  0  0  0  0  0  0  0  0  0  0  0
    1.4003    2.0076   -0.5075 H   0  0  0  0  0  0  0  0  0  0  0  0
    0.9182    1.8167    1.2031 H   0  0  0  0  0  0  0  0  0  0  0  0
    3.9631    1.9579    0.7033 H   0  0  0  0  0  0  0  0  0  0  0  0
   -1.2092    1.6588   -0.9401 H   0  0  0  0  0  0  0  0  0  0  0  0
    5.1950   -0.2412    0.4893 H   0  0  0  0  0  0  0  0  0  0  0  0
   -3.2559    0.6062   -0.2177 H   0  0  0  0  0  0  0  0  0  0  0  0
  1  2  1  0
  1  3  1  0
  2  4  1  0
  2  6  1  0
  3  5  1  0
  3  7  1  0
  4  5  1  0
  6  8  1  0
  7  9  2  3
  1 20  1  0
  1 21  1  0
  2 10  1  0
  3 11  1  0
  4 12  1  0
  4 13  1  0
  5 14  1  0
  5 15  1  0
  6 16  1  0
  6 22  1  0
  7 23  1  0
  8 17  1  0
  8 18  1  0
  8 24  1  0
  9 19  1  0
  9 25  1  0
M  END
