none
     RDKit          3D

 25 24  0  0  0  0  0  0  0  0999 V2000
    1.2317    1.2755    0.3019 C   0  0  0  0  0  0  0  0  0  0  0  0
    2.4846    0.4166    0.5566 C   0  0  0  0  0  0  0  0  0  0  0  0
    0.2117    0.1846   -0.0959 C   0  0  0  0  0  0  0  0  0  0  0  0
   -1.1555    0.7460   -0.3645 C   0  0  0  0  0  0  0  0  0  0  0  0
    0.8163    2.0623    1.5695 C   0  0  0  0  0  0  0  0  0  0  0  0
   -1.1659    2.0455   -1.1349 C   0  0  0  0  0  0  0  0  0  0  0  0
   -2.2981    0.1542    0.0251 C   0  0  0  0  0  0  0  0  0  0  0  0
   -3.6056    0.7054   -0.2487 C   0  0  0  0  0  0  0  0  0  0  0  0
   -4.7445    0.1211    0.1352 C   0  0  0  0  0  0  0  0  0  0  0  0
    2.7808   -0.1398   -0.3437 H   0  0  0  0  0  0  0  0  0  0  0  0
    0.5550   -0.3219   -1.0108 H   0  0  0  0  0  0  0  0  0  0  0  0
   -0.0605    2.6958    1.4039 H   0  0  0  0  0  0  0  0  0  0  0  0
    0.5860    1.3770    2.3926 H   0  0  0  0  0  0  0  0  0  0  0  0
    1.6351    2.7132    1.8941 H   0  0  0  0  0  0  0  0  0  0  0  0
   -1.1874    2.9116   -0.4655 H   0  0  0  0  0  0  0  0  0  0  0  0
   -2.0065    2.1220   -1.8281 H   0  0  0  0  0  0  0  0  0  0  0  0
   -2.2597   -0.7853    0.5714 H   0  0  0  0  0  0  0  0  0  0  0  0
   -3.6957    1.6575   -0.7645 H   0  0  0  0  0  0  0  0  0  0  0  0
    1.4482    1.9783   -0.5185 H   0  0  0  0  0  0  0  0  0  0  0  0
    2.3274   -0.3032    1.3716 H   0  0  0  0  0  0  0  0  0  0  0  0
    3.3239    1.0529    0.8388 H   0  0  0  0  0  0  0  0  0  0  0  0
    0.1505   -0.5848    0.6887 H   0  0  0  0  0  0  0  0  0  0  0  0
   -0.2895    2.1237   -1.7846 H   0  0  0  0  0  0  0  0  0  0  0  0
   -5.7032    0.5837   -0.0832 H   0  0  0  0  0  0  0  0  0  0  0  0
   -4.7572   -0.8213    0.6728 H   0  0  0  0  0  0  0  0  0  0  0  0
  1  2  1  0
  1  3  1  0
  1  5  1  0
  3  4  1  0
  4  6  1  0
  4  7  2  0
  7  8  1  0
  8  9  2  0
  1 19  1  0
  2 10  1  0
  2 20  1  0
  2 21  1  0
  3 11  1  0
  3 22  1  0
  5 12  1  0
  5 13  1  0
  5 14  1  0
  6 15  1  0
  6 16  1  0
  6 23  1  0
  7 17  1  0
  8 18  1  0
  9 24  1  0
  9 25  1  0
M  END
