none
     RDKit          3D

 14 13  0  0  0  0  0  0  0  0999 V2000
    1.2170    1.3199    0.2932 C   0  0  0  0  0  0  0  0  0  0  0  0
    0.2599    0.1872   -0.0477 C   0  0  0  0  0  0  0  0  0  0  0  0
    0.4148   -0.9300    0.9641 C   0  0  0  0  0  0  0  0  0  0  0  0
    0.8203    2.0597    1.5482 C   0  0  0  0  0  0  0  0  0  0  0  0
    0.4615   -0.2052   -1.0658 H   0  0  0  0  0  0  0  0  0  0  0  0
   -0.1809   -1.8019    0.6985 H   0  0  0  0  0  0  0  0  0  0  0  0
    0.1070   -0.5868    1.9527 H   0  0  0  0  0  0  0  0  0  0  0  0
   -0.2086    2.4298    1.4857 H   0  0  0  0  0  0  0  0  0  0  0  0
    0.8950    1.4428    2.4575 H   0  0  0  0  0  0  0  0  0  0  0  0
    1.4745    2.9241    1.7039 H   0  0  0  0  0  0  0  0  0  0  0  0
    2.2236    0.8998    0.4127 H   0  0  0  0  0  0  0  0  0  0  0  0
    1.2650    2.0183   -0.5439 H   0  0  0  0  0  0  0  0  0  0  0  0
   -0.7876    0.5398   -0.0868 H   0  0  0  0  0  0  0  0  0  0  0  0
    1.4653   -1.2248    1.0228 H   0  0  0  0  0  0  0  0  0  0  0  0
  1  2  1  0
  1  4  1  0
  2  3  1  0
  1 11  1  0
  1 12  1  0
  2  5  1  0
  2 13  1  0
  3  6  1  0
  3  7  1  0
  3 14  1  0
  4  8  1  0
  4  9  1  0
  4 10  1  0
M  END
