none
     RDKit          3D

 25 25  0  0  0  0  0  0  0  0999 V2000
    1.2493    1.2691    0.3250 C   0  0  0  0  0  0  0  0  0  0  0  0
    2.4669    0.4107    0.5712 C   0  0  0  0  0  0  0  0  0  0  0  0
    0.2230    0.2050   -0.0973 C   0  0  0  0  0  0  0  0  0  0  0  0
    1.9317   -0.8136    1.3049 C   0  0  0  0  0  0  0  0  0  0  0  0
    0.4346   -0.9008    0.9626 C   0  0  0  0  0  0  0  0  0  0  0  0
   -1.1624    0.7552   -0.3669 C   0  0  0  0  0  0  0  0  0  0  0  0
    0.8367    2.0589    1.5712 C   0  0  0  0  0  0  0  0  0  0  0  0
   -1.1957    2.0388   -1.1514 C   0  0  0  0  0  0  0  0  0  0  0  0
   -2.2961    0.1542    0.0259 C   0  0  0  0  0  0  0  0  0  0  0  0
    2.9144    0.0921   -0.3918 H   0  0  0  0  0  0  0  0  0  0  0  0
    0.5551   -0.2395   -1.0558 H   0  0  0  0  0  0  0  0  0  0  0  0
    2.4664   -1.7257    1.0161 H   0  0  0  0  0  0  0  0  0  0  0  0
    2.0599   -0.6959    2.3910 H   0  0  0  0  0  0  0  0  0  0  0  0
    0.1691   -1.8950    0.5886 H   0  0  0  0  0  0  0  0  0  0  0  0
   -0.1655   -0.7231    1.8652 H   0  0  0  0  0  0  0  0  0  0  0  0
   -0.0978    2.6350    1.4381 H   0  0  0  0  0  0  0  0  0  0  0  0
    0.6726    1.4124    2.4364 H   0  0  0  0  0  0  0  0  0  0  0  0
    1.6095    2.7789    1.8363 H   0  0  0  0  0  0  0  0  0  0  0  0
   -0.8420    2.8902   -0.5400 H   0  0  0  0  0  0  0  0  0  0  0  0
   -2.1869    2.2858   -1.4918 H   0  0  0  0  0  0  0  0  0  0  0  0
   -2.3080   -0.7877    0.5655 H   0  0  0  0  0  0  0  0  0  0  0  0
    1.4365    1.9826   -0.5065 H   0  0  0  0  0  0  0  0  0  0  0  0
    3.2518    0.9296    1.1290 H   0  0  0  0  0  0  0  0  0  0  0  0
   -0.5352    1.9667   -2.0217 H   0  0  0  0  0  0  0  0  0  0  0  0
   -3.2651    0.5978   -0.1945 H   0  0  0  0  0  0  0  0  0  0  0  0
  1  2  1  0
  1  3  1  0
  1  7  1  0
  2  4  1  0
  3  5  1  0
  3  6  1  0
  4  5  1  0
  6  8  1  0
  6  9  2  3
  1 22  1  0
  2 10  1  0
  2 23  1  0
  3 11  1  0
  4 12  1  0
  4 13  1  0
  5 14  1  0
  5 15  1  0
  7 16  1  0
  7 17  1  0
  7 18  1  0
  8 19  1  0
  8 20  1  0
  8 24  1  0
  9 21  1  0
  9 25  1  0
M  END
