none
     RDKit          3D

 26 25  0  0  0  0  0  0  0  0999 V2000
    1.2434    1.2792    0.2932 C   0  0  0  0  0  0  0  0  0  0  0  0
    2.4750    0.4036    0.5524 C   0  0  0  0  0  0  0  0  0  0  0  0
    1.3773    2.2783   -0.8733 C   0  0  0  0  0  0  0  0  0  0  0  0
    3.6491    1.0932    1.2715 C   0  0  0  0  0  0  0  0  0  0  0  0
    0.1703    2.3315   -1.8097 C   0  0  0  0  0  0  0  0  0  0  0  0
   -1.1681    2.0569   -1.1390 C   0  0  0  0  0  0  0  0  0  0  0  0
    4.8428    0.1405    1.4534 C   0  0  0  0  0  0  0  0  0  0  0  0
    4.1004    2.3330    0.5196 C   0  0  0  0  0  0  0  0  0  0  0  0
    2.8201   -0.0161   -0.3993 H   0  0  0  0  0  0  0  0  0  0  0  0
    2.2684    2.0580   -1.4884 H   0  0  0  0  0  0  0  0  0  0  0  0
    1.5267    3.2902   -0.4601 H   0  0  0  0  0  0  0  0  0  0  0  0
    3.3102    1.3898    2.2735 H   0  0  0  0  0  0  0  0  0  0  0  0
    0.3111    1.6040   -2.6198 H   0  0  0  0  0  0  0  0  0  0  0  0
    0.1391    3.3229   -2.2945 H   0  0  0  0  0  0  0  0  0  0  0  0
   -1.2714    2.6140   -0.2013 H   0  0  0  0  0  0  0  0  0  0  0  0
   -1.9836    2.3459   -1.7970 H   0  0  0  0  0  0  0  0  0  0  0  0
    4.5602   -0.7555    2.0130 H   0  0  0  0  0  0  0  0  0  0  0  0
    5.6526    0.6386    2.0131 H   0  0  0  0  0  0  0  0  0  0  0  0
    3.3638    3.1441    0.6061 H   0  0  0  0  0  0  0  0  0  0  0  0
    5.0193    2.7197    0.9344 H   0  0  0  0  0  0  0  0  0  0  0  0
    4.2829    2.1214   -0.5465 H   0  0  0  0  0  0  0  0  0  0  0  0
    0.4361    0.5658    0.0839 H   0  0  0  0  0  0  0  0  0  0  0  0
    0.9456    1.8186    1.2106 H   0  0  0  0  0  0  0  0  0  0  0  0
    2.1596   -0.4462    1.1646 H   0  0  0  0  0  0  0  0  0  0  0  0
   -1.3079    0.9819   -0.9279 H   0  0  0  0  0  0  0  0  0  0  0  0
    5.2533   -0.1759    0.4870 H   0  0  0  0  0  0  0  0  0  0  0  0
  1  2  1  0
  1  3  1  0
  2  4  1  0
  3  5  1  0
  4  7  1  0
  4  8  1  0
  5  6  1  0
  1 22  1  0
  1 23  1  0
  2  9  1  0
  2 24  1  0
  3 10  1  0
  3 11  1  0
  4 12  1  0
  5 13  1  0
  5 14  1  0
  6 15  1  0
  6 16  1  0
  6 25  1  0
  7 17  1  0
  7 18  1  0
  7 26  1  0
  8 19  1  0
  8 20  1  0
  8 21  1  0
M  END
