none
     RDKit          3D

 18 17  0  0  0  0  0  0  0  0999 V2000
    0.2582    0.1659   -0.0581 C   0  0  0  0  0  0  0  0  0  0  0  0
    0.3928   -0.9329    0.9876 C   0  0  0  0  0  0  0  0  0  0  0  0
   -1.1100    0.7387   -0.3565 C   0  0  0  0  0  0  0  0  0  0  0  0
    0.1429    2.4009   -1.8780 C   0  0  0  0  0  0  0  0  0  0  0  0
   -1.1495    2.0394   -1.1334 C   0  0  0  0  0  0  0  0  0  0  0  0
   -2.2660    0.1603    0.0258 C   0  0  0  0  0  0  0  0  0  0  0  0
    0.6814   -0.2214   -0.9948 H   0  0  0  0  0  0  0  0  0  0  0  0
   -0.1259   -1.8469    0.6996 H   0  0  0  0  0  0  0  0  0  0  0  0
    0.0245   -0.6013    1.9620 H   0  0  0  0  0  0  0  0  0  0  0  0
    0.4687    1.5776   -2.5237 H   0  0  0  0  0  0  0  0  0  0  0  0
    0.0113    3.2830   -2.4958 H   0  0  0  0  0  0  0  0  0  0  0  0
   -1.3796    2.8575   -0.4350 H   0  0  0  0  0  0  0  0  0  0  0  0
   -1.9622    1.9953   -1.8754 H   0  0  0  0  0  0  0  0  0  0  0  0
   -2.3020   -0.7822    0.5787 H   0  0  0  0  0  0  0  0  0  0  0  0
    0.9114    0.9739    0.2845 H   0  0  0  0  0  0  0  0  0  0  0  0
    1.4589   -1.1804    1.1027 H   0  0  0  0  0  0  0  0  0  0  0  0
    0.9474    2.6237   -1.1662 H   0  0  0  0  0  0  0  0  0  0  0  0
   -3.2195    0.6085   -0.2053 H   0  0  0  0  0  0  0  0  0  0  0  0
  1  2  1  0
  1  3  1  0
  3  5  1  0
  3  6  2  3
  4  5  1  0
  1  7  1  0
  1 15  1  0
  2  8  1  0
  2  9  1  0
  2 16  1  0
  4 10  1  0
  4 11  1  0
  4 17  1  0
  5 12  1  0
  5 13  1  0
  6 14  1  0
  6 18  1  0
M  END
