none
     RDKit          3D

 22 22  0  0  0  0  0  0  0  0999 V2000
    1.2273    1.2791    0.2788 C   0  0  0  0  0  0  0  0  0  0  0  0
    2.4748    0.4156    0.5496 C   0  0  0  0  0  0  0  0  0  0  0  0
    0.2087    0.1814   -0.1005 C   0  0  0  0  0  0  0  0  0  0  0  0
    1.9307   -0.8073    1.3026 C   0  0  0  0  0  0  0  0  0  0  0  0
    0.4320   -0.8891    0.9656 C   0  0  0  0  0  0  0  0  0  0  0  0
    1.4186    2.2864   -0.8553 C   0  0  0  0  0  0  0  0  0  0  0  0
   -1.1728    0.7110   -0.3747 C   0  0  0  0  0  0  0  0  0  0  0  0
   -2.3089    0.1514    0.0310 C   0  0  0  0  0  0  0  0  0  0  0  0
    2.9372    0.0946   -0.3868 H   0  0  0  0  0  0  0  0  0  0  0  0
    0.5385   -0.2500   -1.0569 H   0  0  0  0  0  0  0  0  0  0  0  0
    2.4593   -1.7154    1.0046 H   0  0  0  0  0  0  0  0  0  0  0  0
    2.0632   -0.6957    2.3815 H   0  0  0  0  0  0  0  0  0  0  0  0
    0.1650   -1.8821    0.6021 H   0  0  0  0  0  0  0  0  0  0  0  0
   -0.1561   -0.6959    1.8710 H   0  0  0  0  0  0  0  0  0  0  0  0
    1.6370    1.7854   -1.7977 H   0  0  0  0  0  0  0  0  0  0  0  0
    2.2466    2.9780   -0.6322 H   0  0  0  0  0  0  0  0  0  0  0  0
   -2.3233   -0.7730    0.6056 H   0  0  0  0  0  0  0  0  0  0  0  0
    0.9271    1.7931    1.1897 H   0  0  0  0  0  0  0  0  0  0  0  0
    3.2281    0.9465    1.1335 H   0  0  0  0  0  0  0  0  0  0  0  0
    0.5297    2.8895   -1.0035 H   0  0  0  0  0  0  0  0  0  0  0  0
   -1.2441    1.6178   -0.9679 H   0  0  0  0  0  0  0  0  0  0  0  0
   -3.2661    0.5993   -0.2310 H   0  0  0  0  0  0  0  0  0  0  0  0
  1  2  1  0
  1  3  1  0
  1  6  1  0
  2  4  1  0
  3  5  1  0
  3  7  1  0
  4  5  1  0
  7  8  2  3
  1 18  1  0
  2  9  1  0
  2 19  1  0
  3 10  1  0
  4 11  1  0
  4 12  1  0
  5 13  1  0
  5 14  1  0
  6 15  1  0
  6 16  1  0
  6 20  1  0
  7 21  1  0
  8 17  1  0
  8 22  1  0
M  END
