none
     RDKit          3D

 26 25  0  0  0  0  0  0  0  0999 V2000
    1.2363    1.3061    0.2887 C   0  0  0  0  0  0  0  0  0  0  0  0
    2.4510    0.3948    0.5453 C   0  0  0  0  0  0  0  0  0  0  0  0
    1.9413   -0.8217    1.3146 C   0  0  0  0  0  0  0  0  0  0  0  0
    1.3988    2.2793   -0.8630 C   0  0  0  0  0  0  0  0  0  0  0  0
    3.6448    1.0769    1.2701 C   0  0  0  0  0  0  0  0  0  0  0  0
    4.8603    0.1409    1.4636 C   0  0  0  0  0  0  0  0  0  0  0  0
    5.4365   -0.4603    0.1675 C   0  0  0  0  0  0  0  0  0  0  0  0
    6.5852   -1.4310    0.4258 C   0  0  0  0  0  0  0  0  0  0  0  0
    2.8129    0.0551   -0.4278 H   0  0  0  0  0  0  0  0  0  0  0  0
    2.6987   -1.5893    1.4297 H   0  0  0  0  0  0  0  0  0  0  0  0
    1.5718   -0.5397    2.3083 H   0  0  0  0  0  0  0  0  0  0  0  0
    1.6836    1.7637   -1.7912 H   0  0  0  0  0  0  0  0  0  0  0  0
    2.1595    3.0307   -0.6390 H   0  0  0  0  0  0  0  0  0  0  0  0
    3.3187    1.4370    2.2596 H   0  0  0  0  0  0  0  0  0  0  0  0
    4.5905   -0.6676    2.1494 H   0  0  0  0  0  0  0  0  0  0  0  0
    5.6446    0.7132    1.9592 H   0  0  0  0  0  0  0  0  0  0  0  0
    5.7891    0.3499   -0.4797 H   0  0  0  0  0  0  0  0  0  0  0  0
    4.6665   -1.0057   -0.3817 H   0  0  0  0  0  0  0  0  0  0  0  0
    6.2538   -2.2791    1.0371 H   0  0  0  0  0  0  0  0  0  0  0  0
    7.4159   -0.9404    0.9375 H   0  0  0  0  0  0  0  0  0  0  0  0
    0.3638    0.6620    0.0469 H   0  0  0  0  0  0  0  0  0  0  0  0
    0.9672    1.8434    1.2042 H   0  0  0  0  0  0  0  0  0  0  0  0
    1.1039   -1.2881    0.7683 H   0  0  0  0  0  0  0  0  0  0  0  0
    0.4495    2.8072   -1.0587 H   0  0  0  0  0  0  0  0  0  0  0  0
    3.9641    1.9593    0.7071 H   0  0  0  0  0  0  0  0  0  0  0  0
    6.9627   -1.8352   -0.5267 H   0  0  0  0  0  0  0  0  0  0  0  0
  1  2  1  0
  1  4  1  0
  2  3  1  0
  2  5  1  0
  5  6  1  0
  6  7  1  0
  7  8  1  0
  1 21  1  0
  1 22  1  0
  2  9  1  0
  3 10  1  0
  3 11  1  0
  3 23  1  0
  4 12  1  0
  4 13  1  0
  4 24  1  0
  5 14  1  0
  5 25  1  0
  6 15  1  0
  6 16  1  0
  7 17  1  0
  7 18  1  0
  8 19  1  0
  8 20  1  0
  8 26  1  0
M  END
