none
     RDKit          3D

 14 13  0  0  0  0  0  0  0  0999 V2000
    1.1890    1.2632    0.2433 C   0  0  0  0  0  0  0  0  0  0  0  0
    0.1854    2.4223   -1.8429 C   0  0  0  0  0  0  0  0  0  0  0  0
    0.2428    0.1073   -0.0384 C   0  0  0  0  0  0  0  0  0  0  0  0
    1.3605    2.2823   -0.8888 C   0  0  0  0  0  0  0  0  0  0  0  0
    0.0027    1.4968   -2.3971 H   0  0  0  0  0  0  0  0  0  0  0  0
    0.3909    3.2091   -2.5762 H   0  0  0  0  0  0  0  0  0  0  0  0
    0.5599   -0.4517   -0.9243 H   0  0  0  0  0  0  0  0  0  0  0  0
    2.2349    1.9881   -1.4832 H   0  0  0  0  0  0  0  0  0  0  0  0
    1.6038    3.2599   -0.4559 H   0  0  0  0  0  0  0  0  0  0  0  0
    2.1743    0.8740    0.5261 H   0  0  0  0  0  0  0  0  0  0  0  0
    0.8083    1.7939    1.1253 H   0  0  0  0  0  0  0  0  0  0  0  0
   -0.7267    2.6964   -1.3037 H   0  0  0  0  0  0  0  0  0  0  0  0
    0.2350   -0.5848    0.8101 H   0  0  0  0  0  0  0  0  0  0  0  0
   -0.7842    0.4536   -0.1889 H   0  0  0  0  0  0  0  0  0  0  0  0
  1  3  1  0
  1  4  1  0
  2  4  1  0
  1 10  1  0
  1 11  1  0
  2  5  1  0
  2  6  1  0
  2 12  1  0
  3  7  1  0
  3 13  1  0
  3 14  1  0
  4  8  1  0
  4  9  1  0
M  END
