none
     RDKit          3D

 23 22  0  0  0  0  0  0  0  0999 V2000
    1.2420    1.2964    0.2982 C   0  0  0  0  0  0  0  0  0  0  0  0
    2.4475    0.3916    0.5465 C   0  0  0  0  0  0  0  0  0  0  0  0
    1.9401   -0.8208    1.3137 C   0  0  0  0  0  0  0  0  0  0  0  0
    3.6479    1.0858    1.2693 C   0  0  0  0  0  0  0  0  0  0  0  0
    4.8583    0.1381    1.4570 C   0  0  0  0  0  0  0  0  0  0  0  0
    4.0851    2.3366    0.5111 C   0  0  0  0  0  0  0  0  0  0  0  0
    5.4364   -0.4574    0.1757 C   0  0  0  0  0  0  0  0  0  0  0  0
    2.8085    0.0631   -0.4340 H   0  0  0  0  0  0  0  0  0  0  0  0
    2.6866   -1.6060    1.3893 H   0  0  0  0  0  0  0  0  0  0  0  0
    1.6163   -0.5475    2.3258 H   0  0  0  0  0  0  0  0  0  0  0  0
    3.3159    1.3973    2.2732 H   0  0  0  0  0  0  0  0  0  0  0  0
    4.5907   -0.6789    2.1350 H   0  0  0  0  0  0  0  0  0  0  0  0
    5.6530    0.6939    1.9661 H   0  0  0  0  0  0  0  0  0  0  0  0
    3.3229    3.1164    0.5700 H   0  0  0  0  0  0  0  0  0  0  0  0
    5.0029    2.7499    0.9348 H   0  0  0  0  0  0  0  0  0  0  0  0
    4.2660    2.1244   -0.5514 H   0  0  0  0  0  0  0  0  0  0  0  0
    5.7458    0.3180   -0.5336 H   0  0  0  0  0  0  0  0  0  0  0  0
    4.7237   -1.1220   -0.3252 H   0  0  0  0  0  0  0  0  0  0  0  0
    0.4317    0.7177   -0.1919 H   0  0  0  0  0  0  0  0  0  0  0  0
    1.4720    2.1252   -0.3650 H   0  0  0  0  0  0  0  0  0  0  0  0
    0.8385    1.6956    1.2343 H   0  0  0  0  0  0  0  0  0  0  0  0
    1.0724   -1.2588    0.7939 H   0  0  0  0  0  0  0  0  0  0  0  0
    6.3234   -1.0555    0.4144 H   0  0  0  0  0  0  0  0  0  0  0  0
  1  2  1  0
  2  3  1  0
  2  4  1  0
  4  5  1  0
  4  6  1  0
  5  7  1  0
  1 19  1  0
  1 20  1  0
  1 21  1  0
  2  8  1  0
  3  9  1  0
  3 10  1  0
  3 22  1  0
  4 11  1  0
  5 12  1  0
  5 13  1  0
  6 14  1  0
  6 15  1  0
  6 16  1  0
  7 17  1  0
  7 18  1  0
  7 23  1  0
M  END
