none
     RDKit          3D

 25 24  0  0  0  0  0  0  0  0999 V2000
    1.2357    1.2708    0.3009 C   0  0  0  0  0  0  0  0  0  0  0  0
    2.4865    0.4115    0.5565 C   0  0  0  0  0  0  0  0  0  0  0  0
    0.2103    0.1858   -0.0970 C   0  0  0  0  0  0  0  0  0  0  0  0
    3.6393    1.0832    1.2736 C   0  0  0  0  0  0  0  0  0  0  0  0
   -1.1556    0.7479   -0.3651 C   0  0  0  0  0  0  0  0  0  0  0  0
   -1.1635    2.0461   -1.1336 C   0  0  0  0  0  0  0  0  0  0  0  0
   -2.2982    0.1541    0.0250 C   0  0  0  0  0  0  0  0  0  0  0  0
   -3.6070    0.7048   -0.2478 C   0  0  0  0  0  0  0  0  0  0  0  0
   -4.7443    0.1209    0.1352 C   0  0  0  0  0  0  0  0  0  0  0  0
    2.8521    0.0260   -0.4049 H   0  0  0  0  0  0  0  0  0  0  0  0
    0.5567   -0.3267   -1.0075 H   0  0  0  0  0  0  0  0  0  0  0  0
    3.3340    1.4257    2.2664 H   0  0  0  0  0  0  0  0  0  0  0  0
   -1.0416    2.8955   -0.4517 H   0  0  0  0  0  0  0  0  0  0  0  0
   -2.0575    2.2072   -1.7402 H   0  0  0  0  0  0  0  0  0  0  0  0
   -2.2599   -0.7859    0.5707 H   0  0  0  0  0  0  0  0  0  0  0  0
   -3.7035    1.6580   -0.7603 H   0  0  0  0  0  0  0  0  0  0  0  0
    1.4345    2.0064   -0.4964 H   0  0  0  0  0  0  0  0  0  0  0  0
    0.9189    1.8045    1.2079 H   0  0  0  0  0  0  0  0  0  0  0  0
    2.2216   -0.4680    1.1607 H   0  0  0  0  0  0  0  0  0  0  0  0
    0.1410   -0.5784    0.6931 H   0  0  0  0  0  0  0  0  0  0  0  0
    4.4732    0.3796    1.3979 H   0  0  0  0  0  0  0  0  0  0  0  0
    4.0005    1.9438    0.7066 H   0  0  0  0  0  0  0  0  0  0  0  0
   -0.3462    2.0611   -1.8596 H   0  0  0  0  0  0  0  0  0  0  0  0
   -5.7030    0.5854   -0.0818 H   0  0  0  0  0  0  0  0  0  0  0  0
   -4.7583   -0.8225    0.6697 H   0  0  0  0  0  0  0  0  0  0  0  0
  1  2  1  0
  1  3  1  0
  2  4  1  0
  3  5  1  0
  5  6  1  0
  5  7  2  0
  7  8  1  0
  8  9  2  0
  1 17  1  0
  1 18  1  0
  2 10  1  0
  2 19  1  0
  3 11  1  0
  3 20  1  0
  4 12  1  0
  4 21  1  0
  4 22  1  0
  6 13  1  0
  6 14  1  0
  6 23  1  0
  7 15  1  0
  8 16  1  0
  9 24  1  0
  9 25  1  0
M  END
