none
     RDKit          3D

 11 10  0  0  0  0  0  0  0  0999 V2000
   -7.0525   -0.3417   -0.7960 C   0  0  0  0  0  0  0  0  0  0  0  0
   -5.7362   -2.1667    0.3252 C   0  0  0  0  0  0  0  0  0  0  0  0
   -7.1185   -1.5936    0.0623 C   0  0  0  0  0  0  0  0  0  0  0  0
   -8.0588    0.0516   -0.9711 H   0  0  0  0  0  0  0  0  0  0  0  0
   -5.2395   -2.4388   -0.6116 H   0  0  0  0  0  0  0  0  0  0  0  0
   -5.8100   -3.0662    0.9444 H   0  0  0  0  0  0  0  0  0  0  0  0
   -7.7365   -2.3471   -0.4385 H   0  0  0  0  0  0  0  0  0  0  0  0
   -7.6026   -1.3568    1.0162 H   0  0  0  0  0  0  0  0  0  0  0  0
   -6.5975   -0.5561   -1.7683 H   0  0  0  0  0  0  0  0  0  0  0  0
   -6.4629    0.4395   -0.3057 H   0  0  0  0  0  0  0  0  0  0  0  0
   -5.1049   -1.4432    0.8510 H   0  0  0  0  0  0  0  0  0  0  0  0
  1  3  1  0
  2  3  1  0
  1  4  1  0
  1  9  1  0
  1 10  1  0
  2  5  1  0
  2  6  1  0
  2 11  1  0
  3  7  1  0
  3  8  1  0
M  END
