none
     RDKit          3D

 21 20  0  0  0  0  0  0  0  0999 V2000
    1.2336    1.2333    0.3218 C   0  0  0  0  0  0  0  0  0  0  0  0
    2.5357    0.4496    0.5952 C   0  0  0  0  0  0  0  0  0  0  0  0
    0.1898    0.2098   -0.1033 C   0  0  0  0  0  0  0  0  0  0  0  0
   -1.1771    0.7679   -0.3755 C   0  0  0  0  0  0  0  0  0  0  0  0
    0.8518    2.0259    1.5734 C   0  0  0  0  0  0  0  0  0  0  0  0
   -1.2184    2.0605   -1.1735 C   0  0  0  0  0  0  0  0  0  0  0  0
   -2.3048    0.1640    0.0377 C   0  0  0  0  0  0  0  0  0  0  0  0
    2.7955   -0.1318   -0.3062 H   0  0  0  0  0  0  0  0  0  0  0  0
    0.5171   -0.3057   -1.0130 H   0  0  0  0  0  0  0  0  0  0  0  0
   -0.0367    2.6217    1.4126 H   0  0  0  0  0  0  0  0  0  0  0  0
    0.6389    1.3608    2.4152 H   0  0  0  0  0  0  0  0  0  0  0  0
    1.6354    2.7193    1.8570 H   0  0  0  0  0  0  0  0  0  0  0  0
   -0.8555    2.8904   -0.5627 H   0  0  0  0  0  0  0  0  0  0  0  0
   -2.2305    2.3012   -1.5156 H   0  0  0  0  0  0  0  0  0  0  0  0
   -2.2768   -0.7753    0.5720 H   0  0  0  0  0  0  0  0  0  0  0  0
    1.4386    1.9213   -0.4916 H   0  0  0  0  0  0  0  0  0  0  0  0
    2.3658   -0.2874    1.4023 H   0  0  0  0  0  0  0  0  0  0  0  0
    3.3727    1.0968    0.8450 H   0  0  0  0  0  0  0  0  0  0  0  0
    0.1075   -0.5692    0.6636 H   0  0  0  0  0  0  0  0  0  0  0  0
   -0.5529    1.9669   -2.0405 H   0  0  0  0  0  0  0  0  0  0  0  0
   -3.2793    0.5854   -0.1861 H   0  0  0  0  0  0  0  0  0  0  0  0
  1  2  1  0
  1  3  1  0
  1  5  1  0
  3  4  1  0
  4  6  1  0
  4  7  2  3
  1 16  1  0
  2  8  1  0
  2 17  1  0
  2 18  1  0
  3  9  1  0
  3 19  1  0
  5 10  1  0
  5 11  1  0
  5 12  1  0
  6 13  1  0
  6 14  1  0
  6 20  1  0
  7 15  1  0
  7 21  1  0
M  END
