none
     RDKit          3D

 20 19  0  0  0  0  0  0  0  0999 V2000
    2.4807    0.4084    0.5552 C   0  0  0  0  0  0  0  0  0  0  0  0
    1.9277   -0.8145    1.3097 C   0  0  0  0  0  0  0  0  0  0  0  0
    0.4349   -0.9040    0.9686 C   0  0  0  0  0  0  0  0  0  0  0  0
    3.6450    1.0791    1.2753 C   0  0  0  0  0  0  0  0  0  0  0  0
    4.8525    0.1410    1.4558 C   0  0  0  0  0  0  0  0  0  0  0  0
    4.0844    2.3317    0.5083 C   0  0  0  0  0  0  0  0  0  0  0  0
    2.7769    0.0998   -0.4555 H   0  0  0  0  0  0  0  0  0  0  0  0
    2.4490   -1.7283    1.0005 H   0  0  0  0  0  0  0  0  0  0  0  0
    2.0365   -0.7029    2.3941 H   0  0  0  0  0  0  0  0  0  0  0  0
    0.0086   -1.8171    1.3988 H   0  0  0  0  0  0  0  0  0  0  0  0
   -0.1136   -0.0470    1.3822 H   0  0  0  0  0  0  0  0  0  0  0  0
    3.3076    1.3985    2.2704 H   0  0  0  0  0  0  0  0  0  0  0  0
    4.5993   -0.7255    2.0746 H   0  0  0  0  0  0  0  0  0  0  0  0
    5.6804    0.6631    1.9507 H   0  0  0  0  0  0  0  0  0  0  0  0
    3.2568    3.0445    0.4197 H   0  0  0  0  0  0  0  0  0  0  0  0
    4.9068    2.8369    1.0284 H   0  0  0  0  0  0  0  0  0  0  0  0
    4.4299    2.0820   -0.5006 H   0  0  0  0  0  0  0  0  0  0  0  0
    1.6895    1.1592    0.4295 H   0  0  0  0  0  0  0  0  0  0  0  0
    0.2728   -0.9297   -0.1182 H   0  0  0  0  0  0  0  0  0  0  0  0
    5.2145   -0.2265    0.4894 H   0  0  0  0  0  0  0  0  0  0  0  0
  1  2  1  0
  1  4  1  0
  2  3  1  0
  4  5  1  0
  4  6  1  0
  1  7  1  0
  1 18  1  0
  2  8  1  0
  2  9  1  0
  3 10  1  0
  3 11  1  0
  3 19  1  0
  4 12  1  0
  5 13  1  0
  5 14  1  0
  5 20  1  0
  6 15  1  0
  6 16  1  0
  6 17  1  0
M  END
