none
     RDKit          3D

 22 21  0  0  0  0  0  0  0  0999 V2000
    0.2238    0.1758   -0.0891 C   0  0  0  0  0  0  0  0  0  0  0  0
    0.4288   -0.9023    0.9670 C   0  0  0  0  0  0  0  0  0  0  0  0
   -1.1531    0.7412   -0.3616 C   0  0  0  0  0  0  0  0  0  0  0  0
    0.1719    2.3447   -1.8212 C   0  0  0  0  0  0  0  0  0  0  0  0
   -1.1595    2.0461   -1.1331 C   0  0  0  0  0  0  0  0  0  0  0  0
   -2.2993    0.1543    0.0257 C   0  0  0  0  0  0  0  0  0  0  0  0
   -3.6070    0.7051   -0.2487 C   0  0  0  0  0  0  0  0  0  0  0  0
   -4.7440    0.1211    0.1351 C   0  0  0  0  0  0  0  0  0  0  0  0
    0.6361   -0.2046   -1.0328 H   0  0  0  0  0  0  0  0  0  0  0  0
   -0.0810   -1.8285    0.6934 H   0  0  0  0  0  0  0  0  0  0  0  0
    0.0573   -0.5735    1.9424 H   0  0  0  0  0  0  0  0  0  0  0  0
    0.4927    1.5232   -2.4735 H   0  0  0  0  0  0  0  0  0  0  0  0
    0.0580    3.2264   -2.4518 H   0  0  0  0  0  0  0  0  0  0  0  0
   -1.3989    2.8737   -0.4515 H   0  0  0  0  0  0  0  0  0  0  0  0
   -1.9196    2.0235   -1.9250 H   0  0  0  0  0  0  0  0  0  0  0  0
   -2.2729   -0.7852    0.5712 H   0  0  0  0  0  0  0  0  0  0  0  0
   -3.6886    1.6525   -0.7769 H   0  0  0  0  0  0  0  0  0  0  0  0
    0.8641    0.9975    0.2474 H   0  0  0  0  0  0  0  0  0  0  0  0
    1.4996   -1.1271    1.0708 H   0  0  0  0  0  0  0  0  0  0  0  0
    0.9717    2.5783   -1.1078 H   0  0  0  0  0  0  0  0  0  0  0  0
   -5.7028    0.5820   -0.0875 H   0  0  0  0  0  0  0  0  0  0  0  0
   -4.7577   -0.8193    0.6757 H   0  0  0  0  0  0  0  0  0  0  0  0
  1  2  1  0
  1  3  1  0
  3  5  1  0
  3  6  2  3
  4  5  1  0
  6  7  1  0
  7  8  2  3
  1  9  1  0
  1 18  1  0
  2 10  1  0
  2 11  1  0
  2 19  1  0
  4 12  1  0
  4 13  1  0
  4 20  1  0
  5 14  1  0
  5 15  1  0
  6 16  1  0
  7 17  1  0
  8 21  1  0
  8 22  1  0
M  END
