none
     RDKit          3D

 20 19  0  0  0  0  0  0  0  0999 V2000
    1.2338    1.2957    0.3027 C   0  0  0  0  0  0  0  0  0  0  0  0
    2.4664    0.4024    0.5527 C   0  0  0  0  0  0  0  0  0  0  0  0
    1.9399   -0.8202    1.3131 C   0  0  0  0  0  0  0  0  0  0  0  0
    3.6421    1.0824    1.2717 C   0  0  0  0  0  0  0  0  0  0  0  0
    0.8085    2.0641    1.5659 C   0  0  0  0  0  0  0  0  0  0  0  0
    4.0884    2.3300    0.5102 C   0  0  0  0  0  0  0  0  0  0  0  0
    2.8316    0.0518   -0.4228 H   0  0  0  0  0  0  0  0  0  0  0  0
    2.7265   -1.5658    1.4180 H   0  0  0  0  0  0  0  0  0  0  0  0
    1.5924   -0.5662    2.3209 H   0  0  0  0  0  0  0  0  0  0  0  0
    3.3831    1.3453    2.3048 H   0  0  0  0  0  0  0  0  0  0  0  0
   -0.0812    2.6583    1.3471 H   0  0  0  0  0  0  0  0  0  0  0  0
    0.5575    1.3918    2.3931 H   0  0  0  0  0  0  0  0  0  0  0  0
    1.5815    2.7610    1.9114 H   0  0  0  0  0  0  0  0  0  0  0  0
    3.3248    3.1158    0.5069 H   0  0  0  0  0  0  0  0  0  0  0  0
    4.9829    2.7478    0.9767 H   0  0  0  0  0  0  0  0  0  0  0  0
    4.3330    2.0871   -0.5300 H   0  0  0  0  0  0  0  0  0  0  0  0
    0.3846    0.6914   -0.0646 H   0  0  0  0  0  0  0  0  0  0  0  0
    1.4518    2.0157   -0.4925 H   0  0  0  0  0  0  0  0  0  0  0  0
    1.1080   -1.2966    0.7730 H   0  0  0  0  0  0  0  0  0  0  0  0
    4.4850    0.3808    1.3332 H   0  0  0  0  0  0  0  0  0  0  0  0
  1  2  1  0
  1  5  1  0
  2  3  1  0
  2  4  1  0
  4  6  1  0
  1 17  1  0
  1 18  1  0
  2  7  1  0
  3  8  1  0
  3  9  1  0
  3 19  1  0
  4 10  1  0
  4 20  1  0
  5 11  1  0
  5 12  1  0
  5 13  1  0
  6 14  1  0
  6 15  1  0
  6 16  1  0
M  END
