none
     RDKit          3D

 26 25  0  0  0  0  0  0  0  0999 V2000
    3.6454    1.0792    1.2729 C   0  0  0  0  0  0  0  0  0  0  0  0
    4.8533    0.1389    1.4580 C   0  0  0  0  0  0  0  0  0  0  0  0
    4.0824    2.3316    0.5084 C   0  0  0  0  0  0  0  0  0  0  0  0
    5.4362   -0.4581    0.1702 C   0  0  0  0  0  0  0  0  0  0  0  0
    6.5889   -1.4380    0.4217 C   0  0  0  0  0  0  0  0  0  0  0  0
    7.2199   -1.9862   -0.8731 C   0  0  0  0  0  0  0  0  0  0  0  0
    7.7453   -0.8765   -1.7861 C   0  0  0  0  0  0  0  0  0  0  0  0
    6.1984   -2.8363   -1.6317 C   0  0  0  0  0  0  0  0  0  0  0  0
    3.2593    1.3702    2.2575 H   0  0  0  0  0  0  0  0  0  0  0  0
    4.5358   -0.6849    2.1079 H   0  0  0  0  0  0  0  0  0  0  0  0
    5.6449    0.6719    1.9997 H   0  0  0  0  0  0  0  0  0  0  0  0
    3.2594    3.0520    0.4769 H   0  0  0  0  0  0  0  0  0  0  0  0
    4.9366    2.8155    0.9938 H   0  0  0  0  0  0  0  0  0  0  0  0
    4.3529    2.0981   -0.5259 H   0  0  0  0  0  0  0  0  0  0  0  0
    5.7892    0.3627   -0.4598 H   0  0  0  0  0  0  0  0  0  0  0  0
    4.6268   -0.9592   -0.3707 H   0  0  0  0  0  0  0  0  0  0  0  0
    6.2324   -2.2726    1.0387 H   0  0  0  0  0  0  0  0  0  0  0  0
    7.3674   -0.9303    1.0042 H   0  0  0  0  0  0  0  0  0  0  0  0
    8.0628   -2.6292   -0.5881 H   0  0  0  0  0  0  0  0  0  0  0  0
    6.9384   -0.2889   -2.2361 H   0  0  0  0  0  0  0  0  0  0  0  0
    8.3264   -1.3081   -2.6082 H   0  0  0  0  0  0  0  0  0  0  0  0
    8.4033   -0.1968   -1.2353 H   0  0  0  0  0  0  0  0  0  0  0  0
    5.3820   -2.2361   -2.0465 H   0  0  0  0  0  0  0  0  0  0  0  0
    6.6821   -3.3481   -2.4704 H   0  0  0  0  0  0  0  0  0  0  0  0
    5.7657   -3.6044   -0.9820 H   0  0  0  0  0  0  0  0  0  0  0  0
    2.8389    0.5690    0.7341 H   0  0  0  0  0  0  0  0  0  0  0  0
  1  2  1  0
  1  3  1  0
  2  4  1  0
  4  5  1  0
  5  6  1  0
  6  7  1  0
  6  8  1  0
  1  9  1  0
  1 26  1  0
  2 10  1  0
  2 11  1  0
  3 12  1  0
  3 13  1  0
  3 14  1  0
  4 15  1  0
  4 16  1  0
  5 17  1  0
  5 18  1  0
  6 19  1  0
  7 20  1  0
  7 21  1  0
  7 22  1  0
  8 23  1  0
  8 24  1  0
  8 25  1  0
M  END
