none
     RDKit          3D

 19 18  0  0  0  0  0  0  0  0999 V2000
    0.2172    0.1997   -0.1120 C   0  0  0  0  0  0  0  0  0  0  0  0
    1.9282   -0.8393    1.3271 C   0  0  0  0  0  0  0  0  0  0  0  0
    0.4516   -0.8730    0.9624 C   0  0  0  0  0  0  0  0  0  0  0  0
   -1.1589    0.7208   -0.3591 C   0  0  0  0  0  0  0  0  0  0  0  0
   -2.3093    0.1503    0.0313 C   0  0  0  0  0  0  0  0  0  0  0  0
   -3.6048    0.7078   -0.2568 C   0  0  0  0  0  0  0  0  0  0  0  0
   -4.7457    0.1229    0.1366 C   0  0  0  0  0  0  0  0  0  0  0  0
    0.6292   -0.1736   -1.0517 H   0  0  0  0  0  0  0  0  0  0  0  0
    2.5457   -1.0877    0.4535 H   0  0  0  0  0  0  0  0  0  0  0  0
    2.1547   -1.5258    2.1289 H   0  0  0  0  0  0  0  0  0  0  0  0
    0.1752   -1.8856    0.5953 H   0  0  0  0  0  0  0  0  0  0  0  0
   -0.1509   -0.6932    1.8660 H   0  0  0  0  0  0  0  0  0  0  0  0
   -2.2760   -0.7845    0.5760 H   0  0  0  0  0  0  0  0  0  0  0  0
   -3.6524    1.6425   -0.8053 H   0  0  0  0  0  0  0  0  0  0  0  0
    0.8198    1.0652    0.1716 H   0  0  0  0  0  0  0  0  0  0  0  0
    2.2171    0.1729    1.6538 H   0  0  0  0  0  0  0  0  0  0  0  0
   -1.1848    1.6621   -0.9224 H   0  0  0  0  0  0  0  0  0  0  0  0
   -5.7033    0.5705   -0.1010 H   0  0  0  0  0  0  0  0  0  0  0  0
   -4.7569   -0.8109    0.6880 H   0  0  0  0  0  0  0  0  0  0  0  0
  1  3  1  0
  1  4  1  0
  2  3  1  0
  4  5  2  0
  5  6  1  0
  6  7  2  0
  1  8  1  0
  1 15  1  0
  2  9  1  0
  2 10  1  0
  2 16  1  0
  3 11  1  0
  3 12  1  0
  4 17  1  0
  5 13  1  0
  6 14  1  0
  7 18  1  0
  7 19  1  0
M  END
