none
     RDKit          3D

 16 15  0  0  0  0  0  0  0  0999 V2000
    0.2314    0.1880   -0.0975 C   0  0  0  0  0  0  0  0  0  0  0  0
    0.4232   -0.8974    0.9630 C   0  0  0  0  0  0  0  0  0  0  0  0
   -1.1539    0.7266   -0.3556 C   0  0  0  0  0  0  0  0  0  0  0  0
   -2.3010    0.1542    0.0285 C   0  0  0  0  0  0  0  0  0  0  0  0
   -3.6059    0.7069   -0.2522 C   0  0  0  0  0  0  0  0  0  0  0  0
   -4.7407    0.1242    0.1346 C   0  0  0  0  0  0  0  0  0  0  0  0
    0.6204   -0.1859   -1.0486 H   0  0  0  0  0  0  0  0  0  0  0  0
   -0.0840   -1.8269    0.6953 H   0  0  0  0  0  0  0  0  0  0  0  0
    0.0629   -0.5700    1.9431 H   0  0  0  0  0  0  0  0  0  0  0  0
   -2.2739   -0.7813    0.5785 H   0  0  0  0  0  0  0  0  0  0  0  0
   -3.6494    1.6439   -0.8026 H   0  0  0  0  0  0  0  0  0  0  0  0
    0.8522    1.0320    0.1904 H   0  0  0  0  0  0  0  0  0  0  0  0
    1.4993   -1.1273    1.0657 H   0  0  0  0  0  0  0  0  0  0  0  0
   -1.1836    1.6668   -0.9271 H   0  0  0  0  0  0  0  0  0  0  0  0
   -5.7020    0.5778   -0.0987 H   0  0  0  0  0  0  0  0  0  0  0  0
   -4.7582   -0.8123    0.6867 H   0  0  0  0  0  0  0  0  0  0  0  0
  1  2  1  0
  1  3  1  0
  3  4  2  0
  4  5  1  0
  5  6  2  0
  1  7  1  0
  1 12  1  0
  2  8  1  0
  2  9  1  0
  2 13  1  0
  3 14  1  0
  4 10  1  0
  5 11  1  0
  6 15  1  0
  6 16  1  0
M  END
