none
     RDKit          3D

 23 22  0  0  0  0  0  0  0  0999 V2000
   -1.1572    0.7460   -0.3644 C   0  0  0  0  0  0  0  0  0  0  0  0
   -1.1611    2.0442   -1.1293 C   0  0  0  0  0  0  0  0  0  0  0  0
   -2.2925    0.1566    0.0213 C   0  0  0  0  0  0  0  0  0  0  0  0
   -3.6026    0.7049   -0.2501 C   0  0  0  0  0  0  0  0  0  0  0  0
   -4.7484    0.1191    0.1367 C   0  0  0  0  0  0  0  0  0  0  0  0
   -6.0978    0.7048   -0.2114 C   0  0  0  0  0  0  0  0  0  0  0  0
   -4.7788   -1.1344    0.8788 C   0  0  0  0  0  0  0  0  0  0  0  0
   -7.0577   -0.3309   -0.8025 C   0  0  0  0  0  0  0  0  0  0  0  0
   -4.0606   -1.3515    1.9888 C   0  0  0  0  0  0  0  0  0  0  0  0
   -1.5434    2.8658   -0.5124 H   0  0  0  0  0  0  0  0  0  0  0  0
   -1.7407    1.9664   -2.0581 H   0  0  0  0  0  0  0  0  0  0  0  0
   -2.1898   -0.8086    0.5058 H   0  0  0  0  0  0  0  0  0  0  0  0
   -3.6668    1.6404   -0.8013 H   0  0  0  0  0  0  0  0  0  0  0  0
   -5.9877    1.5229   -0.9353 H   0  0  0  0  0  0  0  0  0  0  0  0
   -6.5474    1.1405    0.6900 H   0  0  0  0  0  0  0  0  0  0  0  0
   -7.9436    0.1728   -1.1981 H   0  0  0  0  0  0  0  0  0  0  0  0
   -4.0991   -2.3119    2.4883 H   0  0  0  0  0  0  0  0  0  0  0  0
   -3.4511   -0.5784    2.4507 H   0  0  0  0  0  0  0  0  0  0  0  0
   -0.1977    0.2749   -0.1535 H   0  0  0  0  0  0  0  0  0  0  0  0
   -0.1359    2.2973   -1.4123 H   0  0  0  0  0  0  0  0  0  0  0  0
   -5.3908   -1.9432    0.4856 H   0  0  0  0  0  0  0  0  0  0  0  0
   -6.5938   -0.8886   -1.6235 H   0  0  0  0  0  0  0  0  0  0  0  0
   -7.4085   -1.0425   -0.0465 H   0  0  0  0  0  0  0  0  0  0  0  0
  1  2  1  0
  1  3  2  0
  3  4  1  0
  4  5  2  0
  5  6  1  0
  5  7  1  0
  6  8  1  0
  7  9  2  0
  1 19  1  0
  2 10  1  0
  2 11  1  0
  2 20  1  0
  3 12  1  0
  4 13  1  0
  6 14  1  0
  6 15  1  0
  7 21  1  0
  8 16  1  0
  8 22  1  0
  8 23  1  0
  9 17  1  0
  9 18  1  0
M  END
