none
     RDKit          3D

 19 18  0  0  0  0  0  0  0  0999 V2000
    0.2232    0.1808   -0.0946 C   0  0  0  0  0  0  0  0  0  0  0  0
    0.4304   -0.9009    0.9666 C   0  0  0  0  0  0  0  0  0  0  0  0
   -1.1546    0.7417   -0.3619 C   0  0  0  0  0  0  0  0  0  0  0  0
   -1.1628    2.0452   -1.1311 C   0  0  0  0  0  0  0  0  0  0  0  0
   -2.2992    0.1546    0.0258 C   0  0  0  0  0  0  0  0  0  0  0  0
   -3.6060    0.7053   -0.2496 C   0  0  0  0  0  0  0  0  0  0  0  0
   -4.7442    0.1214    0.1351 C   0  0  0  0  0  0  0  0  0  0  0  0
    0.6221   -0.1924   -1.0455 H   0  0  0  0  0  0  0  0  0  0  0  0
   -0.0872   -1.8255    0.6975 H   0  0  0  0  0  0  0  0  0  0  0  0
    0.0670   -0.5686    1.9440 H   0  0  0  0  0  0  0  0  0  0  0  0
   -1.4251    2.8797   -0.4708 H   0  0  0  0  0  0  0  0  0  0  0  0
   -1.8536    2.0149   -1.9815 H   0  0  0  0  0  0  0  0  0  0  0  0
   -2.2728   -0.7852    0.5711 H   0  0  0  0  0  0  0  0  0  0  0  0
   -3.6838    1.6488   -0.7850 H   0  0  0  0  0  0  0  0  0  0  0  0
    0.8643    1.0190    0.2010 H   0  0  0  0  0  0  0  0  0  0  0  0
    1.4994   -1.1311    1.0638 H   0  0  0  0  0  0  0  0  0  0  0  0
   -0.1761    2.2565   -1.5527 H   0  0  0  0  0  0  0  0  0  0  0  0
   -5.7031    0.5800   -0.0906 H   0  0  0  0  0  0  0  0  0  0  0  0
   -4.7580   -0.8169    0.6797 H   0  0  0  0  0  0  0  0  0  0  0  0
  1  2  1  0
  1  3  1  0
  3  4  1  0
  3  5  2  0
  5  6  1  0
  6  7  2  0
  1  8  1  0
  1 15  1  0
  2  9  1  0
  2 10  1  0
  2 16  1  0
  4 11  1  0
  4 12  1  0
  4 17  1  0
  5 13  1  0
  6 14  1  0
  7 18  1  0
  7 19  1  0
M  END
