none
     RDKit          3D

 20 19  0  0  0  0  0  0  0  0999 V2000
    3.6455    1.0792    1.2728 C   0  0  0  0  0  0  0  0  0  0  0  0
    4.8532    0.1390    1.4576 C   0  0  0  0  0  0  0  0  0  0  0  0
    4.0825    2.3316    0.5084 C   0  0  0  0  0  0  0  0  0  0  0  0
    5.4374   -0.4590    0.1687 C   0  0  0  0  0  0  0  0  0  0  0  0
    6.5893   -1.4396    0.4214 C   0  0  0  0  0  0  0  0  0  0  0  0
    7.2202   -1.9851   -0.8715 C   0  0  0  0  0  0  0  0  0  0  0  0
    3.2587    1.3700    2.2573 H   0  0  0  0  0  0  0  0  0  0  0  0
    4.5362   -0.6851    2.1076 H   0  0  0  0  0  0  0  0  0  0  0  0
    5.6451    0.6718    1.9992 H   0  0  0  0  0  0  0  0  0  0  0  0
    3.2574    3.0493    0.4709 H   0  0  0  0  0  0  0  0  0  0  0  0
    4.9324    2.8189    0.9978 H   0  0  0  0  0  0  0  0  0  0  0  0
    4.3601    2.0965   -0.5236 H   0  0  0  0  0  0  0  0  0  0  0  0
    5.8055    0.3460   -0.4762 H   0  0  0  0  0  0  0  0  0  0  0  0
    4.6417   -0.9728   -0.3832 H   0  0  0  0  0  0  0  0  0  0  0  0
    6.2262   -2.2829    1.0204 H   0  0  0  0  0  0  0  0  0  0  0  0
    7.3708   -0.9416    1.0071 H   0  0  0  0  0  0  0  0  0  0  0  0
    8.0324   -2.6791   -0.6315 H   0  0  0  0  0  0  0  0  0  0  0  0
    2.8394    0.5687    0.7336 H   0  0  0  0  0  0  0  0  0  0  0  0
    7.6308   -1.1701   -1.4759 H   0  0  0  0  0  0  0  0  0  0  0  0
    6.4754   -2.5196   -1.4695 H   0  0  0  0  0  0  0  0  0  0  0  0
  1  2  1  0
  1  3  1  0
  2  4  1  0
  4  5  1  0
  5  6  1  0
  1  7  1  0
  1 18  1  0
  2  8  1  0
  2  9  1  0
  3 10  1  0
  3 11  1  0
  3 12  1  0
  4 13  1  0
  4 14  1  0
  5 15  1  0
  5 16  1  0
  6 17  1  0
  6 19  1  0
  6 20  1  0
M  END
