none
     RDKit          3D

 29 28  0  0  0  0  0  0  0  0999 V2000
    1.2292    1.2894    0.2979 C   0  0  0  0  0  0  0  0  0  0  0  0
    2.4781    0.4092    0.5537 C   0  0  0  0  0  0  0  0  0  0  0  0
    1.3913    2.2834   -0.8743 C   0  0  0  0  0  0  0  0  0  0  0  0
    3.6444    1.0809    1.2729 C   0  0  0  0  0  0  0  0  0  0  0  0
    0.8117    2.0634    1.5703 C   0  0  0  0  0  0  0  0  0  0  0  0
    4.8536    0.1383    1.4566 C   0  0  0  0  0  0  0  0  0  0  0  0
    4.0873    2.3321    0.5094 C   0  0  0  0  0  0  0  0  0  0  0  0
    5.4384   -0.4597    0.1695 C   0  0  0  0  0  0  0  0  0  0  0  0
    6.5879   -1.4381    0.4222 C   0  0  0  0  0  0  0  0  0  0  0  0
    2.7939    0.0033   -0.4135 H   0  0  0  0  0  0  0  0  0  0  0  0
    1.9433    1.8341   -1.7059 H   0  0  0  0  0  0  0  0  0  0  0  0
    1.8646    3.2268   -0.5924 H   0  0  0  0  0  0  0  0  0  0  0  0
    3.3324    1.3845    2.2808 H   0  0  0  0  0  0  0  0  0  0  0  0
   -0.1586    2.5458    1.4108 H   0  0  0  0  0  0  0  0  0  0  0  0
    0.7068    1.3799    2.4194 H   0  0  0  0  0  0  0  0  0  0  0  0
    1.5232    2.8479    1.8439 H   0  0  0  0  0  0  0  0  0  0  0  0
    4.5464   -0.6859    2.1123 H   0  0  0  0  0  0  0  0  0  0  0  0
    5.6477    0.6711    1.9957 H   0  0  0  0  0  0  0  0  0  0  0  0
    3.4402    3.1860    0.7201 H   0  0  0  0  0  0  0  0  0  0  0  0
    5.0844    2.6457    0.8356 H   0  0  0  0  0  0  0  0  0  0  0  0
    4.1434    2.1658   -0.5719 H   0  0  0  0  0  0  0  0  0  0  0  0
    5.8013    0.3422   -0.4825 H   0  0  0  0  0  0  0  0  0  0  0  0
    4.6675   -1.0036   -0.3846 H   0  0  0  0  0  0  0  0  0  0  0  0
    6.2527   -2.2831    1.0326 H   0  0  0  0  0  0  0  0  0  0  0  0
    7.4121   -0.9414    0.9425 H   0  0  0  0  0  0  0  0  0  0  0  0
    0.4116    0.6054    0.0296 H   0  0  0  0  0  0  0  0  0  0  0  0
    2.1637   -0.4539    1.1548 H   0  0  0  0  0  0  0  0  0  0  0  0
    0.3986    2.5527   -1.2538 H   0  0  0  0  0  0  0  0  0  0  0  0
    6.9678   -1.8302   -0.5273 H   0  0  0  0  0  0  0  0  0  0  0  0
  1  2  1  0
  1  3  1  0
  1  5  1  0
  2  4  1  0
  4  6  1  0
  4  7  1  0
  6  8  1  0
  8  9  1  0
  1 26  1  0
  2 10  1  0
  2 27  1  0
  3 11  1  0
  3 12  1  0
  3 28  1  0
  4 13  1  0
  5 14  1  0
  5 15  1  0
  5 16  1  0
  6 17  1  0
  6 18  1  0
  7 19  1  0
  7 20  1  0
  7 21  1  0
  8 22  1  0
  8 23  1  0
  9 24  1  0
  9 25  1  0
  9 29  1  0
M  END
