none
     RDKit          3D

 20 19  0  0  0  0  0  0  0  0999 V2000
    1.2097    1.2586    0.2784 C   0  0  0  0  0  0  0  0  0  0  0  0
    2.4319    0.3989    0.5596 C   0  0  0  0  0  0  0  0  0  0  0  0
    2.0113   -0.8377    1.3423 C   0  0  0  0  0  0  0  0  0  0  0  0
    1.3794    2.2622   -0.8586 C   0  0  0  0  0  0  0  0  0  0  0  0
    0.1782    2.3472   -1.8069 C   0  0  0  0  0  0  0  0  0  0  0  0
   -1.1938    2.1097   -1.1675 C   0  0  0  0  0  0  0  0  0  0  0  0
    2.9033    0.0651   -0.3771 H   0  0  0  0  0  0  0  0  0  0  0  0
    2.8603   -1.4697    1.5910 H   0  0  0  0  0  0  0  0  0  0  0  0
    1.5061   -0.5661    2.2838 H   0  0  0  0  0  0  0  0  0  0  0  0
    2.2760    2.0541   -1.4580 H   0  0  0  0  0  0  0  0  0  0  0  0
    1.5429    3.2562   -0.4249 H   0  0  0  0  0  0  0  0  0  0  0  0
    0.3019    1.5937   -2.6016 H   0  0  0  0  0  0  0  0  0  0  0  0
    0.1750    3.3327   -2.2994 H   0  0  0  0  0  0  0  0  0  0  0  0
   -1.2996    2.6576   -0.2258 H   0  0  0  0  0  0  0  0  0  0  0  0
   -1.9922    2.4336   -1.8367 H   0  0  0  0  0  0  0  0  0  0  0  0
    0.3762    0.5783    0.0627 H   0  0  0  0  0  0  0  0  0  0  0  0
    0.9401    1.8067    1.1912 H   0  0  0  0  0  0  0  0  0  0  0  0
    3.1759    0.9647    1.1352 H   0  0  0  0  0  0  0  0  0  0  0  0
    1.3048   -1.4535    0.7516 H   0  0  0  0  0  0  0  0  0  0  0  0
   -1.3694    1.0411   -0.9782 H   0  0  0  0  0  0  0  0  0  0  0  0
  1  2  1  0
  1  4  1  0
  2  3  1  0
  4  5  1  0
  5  6  1  0
  1 16  1  0
  1 17  1  0
  2  7  1  0
  2 18  1  0
  3  8  1  0
  3  9  1  0
  3 19  1  0
  4 10  1  0
  4 11  1  0
  5 12  1  0
  5 13  1  0
  6 14  1  0
  6 15  1  0
  6 20  1  0
M  END
