none
     RDKit          3D

 12 11  0  0  0  0  0  0  0  0999 V2000
   -7.0925   -0.3106   -0.8207 C   0  0  0  0  0  0  0  0  0  0  0  0
   -4.7931    0.0470    0.1936 C   0  0  0  0  0  0  0  0  0  0  0  0
   -6.0913    0.6821   -0.2287 C   0  0  0  0  0  0  0  0  0  0  0  0
   -4.7262   -1.1100    0.8869 C   0  0  0  0  0  0  0  0  0  0  0  0
   -7.9351    0.2357   -1.2553 H   0  0  0  0  0  0  0  0  0  0  0  0
   -5.8803    1.4445   -0.9926 H   0  0  0  0  0  0  0  0  0  0  0  0
   -6.5359    1.2161    0.6241 H   0  0  0  0  0  0  0  0  0  0  0  0
   -6.6326   -0.9098   -1.6112 H   0  0  0  0  0  0  0  0  0  0  0  0
   -7.4972   -0.9852   -0.0580 H   0  0  0  0  0  0  0  0  0  0  0  0
   -3.8656    0.5617   -0.0862 H   0  0  0  0  0  0  0  0  0  0  0  0
   -5.6196   -1.6523    1.2102 H   0  0  0  0  0  0  0  0  0  0  0  0
   -3.7693   -1.5451    1.1624 H   0  0  0  0  0  0  0  0  0  0  0  0
  1  3  1  0
  2  3  1  0
  2  4  2  3
  1  5  1  0
  1  8  1  0
  1  9  1  0
  2 10  1  0
  3  6  1  0
  3  7  1  0
  4 11  1  0
  4 12  1  0
M  END
