none
     RDKit          3D

 26 25  0  0  0  0  0  0  0  0999 V2000
    1.2449    1.2805    0.2962 C   0  0  0  0  0  0  0  0  0  0  0  0
    2.4732    0.4068    0.5512 C   0  0  0  0  0  0  0  0  0  0  0  0
    1.3889    2.2790   -0.8666 C   0  0  0  0  0  0  0  0  0  0  0  0
    3.6464    1.0820    1.2650 C   0  0  0  0  0  0  0  0  0  0  0  0
    0.1730    2.3328   -1.8090 C   0  0  0  0  0  0  0  0  0  0  0  0
   -1.1679    2.0569   -1.1392 C   0  0  0  0  0  0  0  0  0  0  0  0
    4.8526    0.1400    1.4574 C   0  0  0  0  0  0  0  0  0  0  0  0
    5.4330   -0.4530    0.1754 C   0  0  0  0  0  0  0  0  0  0  0  0
    2.8068   -0.0006   -0.4082 H   0  0  0  0  0  0  0  0  0  0  0  0
    2.2859    2.0600   -1.4682 H   0  0  0  0  0  0  0  0  0  0  0  0
    1.5523    3.2826   -0.4463 H   0  0  0  0  0  0  0  0  0  0  0  0
    3.3134    1.4322    2.2583 H   0  0  0  0  0  0  0  0  0  0  0  0
    0.3126    1.6041   -2.6193 H   0  0  0  0  0  0  0  0  0  0  0  0
    0.1406    3.3234   -2.2935 H   0  0  0  0  0  0  0  0  0  0  0  0
   -1.2719    2.6143   -0.2015 H   0  0  0  0  0  0  0  0  0  0  0  0
   -1.9833    2.3456   -1.7974 H   0  0  0  0  0  0  0  0  0  0  0  0
    4.5726   -0.6801    2.1274 H   0  0  0  0  0  0  0  0  0  0  0  0
    5.6447    0.7041    1.9651 H   0  0  0  0  0  0  0  0  0  0  0  0
    5.6691    0.3279   -0.5535 H   0  0  0  0  0  0  0  0  0  0  0  0
    4.7434   -1.1675   -0.2899 H   0  0  0  0  0  0  0  0  0  0  0  0
    0.4359    0.5662    0.0847 H   0  0  0  0  0  0  0  0  0  0  0  0
    0.9469    1.8189    1.2110 H   0  0  0  0  0  0  0  0  0  0  0  0
    2.1615   -0.4497    1.1596 H   0  0  0  0  0  0  0  0  0  0  0  0
    3.9618    1.9623    0.7082 H   0  0  0  0  0  0  0  0  0  0  0  0
   -1.3074    0.9817   -0.9281 H   0  0  0  0  0  0  0  0  0  0  0  0
    6.3617   -0.9997    0.3978 H   0  0  0  0  0  0  0  0  0  0  0  0
  1  2  1  0
  1  3  1  0
  2  4  1  0
  3  5  1  0
  4  7  1  0
  5  6  1  0
  7  8  1  0
  1 21  1  0
  1 22  1  0
  2  9  1  0
  2 23  1  0
  3 10  1  0
  3 11  1  0
  4 12  1  0
  4 24  1  0
  5 13  1  0
  5 14  1  0
  6 15  1  0
  6 16  1  0
  6 25  1  0
  7 17  1  0
  7 18  1  0
  8 19  1  0
  8 20  1  0
  8 26  1  0
M  END
