none
     RDKit          3D

 23 23  0  0  0  0  0  0  0  0999 V2000
    1.2243    1.2858    0.2900 C   0  0  0  0  0  0  0  0  0  0  0  0
    0.2202    0.1788   -0.0899 C   0  0  0  0  0  0  0  0  0  0  0  0
    1.3909    2.2844   -0.8716 C   0  0  0  0  0  0  0  0  0  0  0  0
   -1.1534    0.7450   -0.3655 C   0  0  0  0  0  0  0  0  0  0  0  0
    0.1767    2.3375   -1.8159 C   0  0  0  0  0  0  0  0  0  0  0  0
   -1.1610    2.0480   -1.1312 C   0  0  0  0  0  0  0  0  0  0  0  0
   -2.2979    0.1539    0.0258 C   0  0  0  0  0  0  0  0  0  0  0  0
   -3.6064    0.7050   -0.2488 C   0  0  0  0  0  0  0  0  0  0  0  0
   -4.7441    0.1212    0.1352 C   0  0  0  0  0  0  0  0  0  0  0  0
    0.5787   -0.3509   -0.9840 H   0  0  0  0  0  0  0  0  0  0  0  0
    2.2815    2.0233   -1.4603 H   0  0  0  0  0  0  0  0  0  0  0  0
    1.5812    3.2813   -0.4559 H   0  0  0  0  0  0  0  0  0  0  0  0
    0.3260    1.6028   -2.6185 H   0  0  0  0  0  0  0  0  0  0  0  0
    0.1388    3.3177   -2.3065 H   0  0  0  0  0  0  0  0  0  0  0  0
   -1.3889    2.8675   -0.4384 H   0  0  0  0  0  0  0  0  0  0  0  0
   -1.9266    2.0421   -1.9182 H   0  0  0  0  0  0  0  0  0  0  0  0
   -2.2590   -0.7852    0.5721 H   0  0  0  0  0  0  0  0  0  0  0  0
   -3.6886    1.6526   -0.7763 H   0  0  0  0  0  0  0  0  0  0  0  0
    2.1985    0.8485    0.5505 H   0  0  0  0  0  0  0  0  0  0  0  0
    0.8652    1.8184    1.1830 H   0  0  0  0  0  0  0  0  0  0  0  0
    0.1771   -0.5537    0.7204 H   0  0  0  0  0  0  0  0  0  0  0  0
   -5.7029    0.5821   -0.0869 H   0  0  0  0  0  0  0  0  0  0  0  0
   -4.7573   -0.8194    0.6756 H   0  0  0  0  0  0  0  0  0  0  0  0
  1  2  1  0
  1  3  1  0
  2  4  1  0
  3  5  1  0
  4  6  1  0
  4  7  2  3
  5  6  1  0
  7  8  1  0
  8  9  2  3
  1 19  1  0
  1 20  1  0
  2 10  1  0
  2 21  1  0
  3 11  1  0
  3 12  1  0
  5 13  1  0
  5 14  1  0
  6 15  1  0
  6 16  1  0
  7 17  1  0
  8 18  1  0
  9 22  1  0
  9 23  1  0
M  END
