none
     RDKit          3D

 17 16  0  0  0  0  0  0  0  0999 V2000
    1.2326    1.3086    0.2828 C   0  0  0  0  0  0  0  0  0  0  0  0
    2.4357    0.3849    0.5326 C   0  0  0  0  0  0  0  0  0  0  0  0
    1.9647   -0.8322    1.3254 C   0  0  0  0  0  0  0  0  0  0  0  0
    1.4217    2.2886   -0.8545 C   0  0  0  0  0  0  0  0  0  0  0  0
    3.5950    1.0820    1.2577 C   0  0  0  0  0  0  0  0  0  0  0  0
    2.8226    0.0284   -0.4312 H   0  0  0  0  0  0  0  0  0  0  0  0
    2.7903   -1.5011    1.5662 H   0  0  0  0  0  0  0  0  0  0  0  0
    1.4822   -0.5311    2.2660 H   0  0  0  0  0  0  0  0  0  0  0  0
    1.6671    1.7638   -1.7882 H   0  0  0  0  0  0  0  0  0  0  0  0
    2.2148    3.0077   -0.6482 H   0  0  0  0  0  0  0  0  0  0  0  0
    3.2830    1.4427    2.2422 H   0  0  0  0  0  0  0  0  0  0  0  0
    0.3530    0.6887    0.0451 H   0  0  0  0  0  0  0  0  0  0  0  0
    0.9844    1.8543    1.2059 H   0  0  0  0  0  0  0  0  0  0  0  0
    1.2308   -1.4086    0.7385 H   0  0  0  0  0  0  0  0  0  0  0  0
    0.4943    2.8479   -1.0232 H   0  0  0  0  0  0  0  0  0  0  0  0
    4.4310    0.3837    1.4104 H   0  0  0  0  0  0  0  0  0  0  0  0
    3.9703    1.9313    0.6883 H   0  0  0  0  0  0  0  0  0  0  0  0
  1  2  1  0
  1  4  1  0
  2  3  1  0
  2  5  1  0
  1 12  1  0
  1 13  1  0
  2  6  1  0
  3  7  1  0
  3  8  1  0
  3 14  1  0
  4  9  1  0
  4 10  1  0
  4 15  1  0
  5 11  1  0
  5 16  1  0
  5 17  1  0
M  END
