none
     RDKit          3D

 29 28  0  0  0  0  0  0  0  0999 V2000
    1.2263    1.2534    0.2800 C   0  0  0  0  0  0  0  0  0  0  0  0
    2.4888    0.4138    0.5591 C   0  0  0  0  0  0  0  0  0  0  0  0
    0.1990    0.1838   -0.0832 C   0  0  0  0  0  0  0  0  0  0  0  0
    1.3790    2.2791   -0.8792 C   0  0  0  0  0  0  0  0  0  0  0  0
    3.6511    1.0945    1.2634 C   0  0  0  0  0  0  0  0  0  0  0  0
    0.1820    2.3533   -1.8174 C   0  0  0  0  0  0  0  0  0  0  0  0
    4.8520    0.1331    1.4560 C   0  0  0  0  0  0  0  0  0  0  0  0
    4.0973    2.3368    0.5195 C   0  0  0  0  0  0  0  0  0  0  0  0
    5.4372   -0.4568    0.1755 C   0  0  0  0  0  0  0  0  0  0  0  0
    2.8210    0.0045   -0.4071 H   0  0  0  0  0  0  0  0  0  0  0  0
    0.5074   -0.3563   -1.0043 H   0  0  0  0  0  0  0  0  0  0  0  0
    2.2569    2.0287   -1.4947 H   0  0  0  0  0  0  0  0  0  0  0  0
    1.5556    3.2909   -0.4752 H   0  0  0  0  0  0  0  0  0  0  0  0
    3.3119    1.3929    2.2725 H   0  0  0  0  0  0  0  0  0  0  0  0
    0.0414    1.4112   -2.3791 H   0  0  0  0  0  0  0  0  0  0  0  0
    0.3311    3.1344   -2.5545 H   0  0  0  0  0  0  0  0  0  0  0  0
    4.5581   -0.6882    2.1128 H   0  0  0  0  0  0  0  0  0  0  0  0
    5.6512    0.6770    1.9839 H   0  0  0  0  0  0  0  0  0  0  0  0
    3.3728    3.1495    0.6365 H   0  0  0  0  0  0  0  0  0  0  0  0
    5.0326    2.7085    0.9144 H   0  0  0  0  0  0  0  0  0  0  0  0
    4.2471    2.1429   -0.5559 H   0  0  0  0  0  0  0  0  0  0  0  0
    5.7441    0.3181   -0.5345 H   0  0  0  0  0  0  0  0  0  0  0  0
    4.7254   -1.1247   -0.3242 H   0  0  0  0  0  0  0  0  0  0  0  0
    0.8957    1.7900    1.2068 H   0  0  0  0  0  0  0  0  0  0  0  0
    2.2087   -0.4606    1.1681 H   0  0  0  0  0  0  0  0  0  0  0  0
    0.1115   -0.5611    0.7080 H   0  0  0  0  0  0  0  0  0  0  0  0
   -0.7898    0.5893   -0.2312 H   0  0  0  0  0  0  0  0  0  0  0  0
   -0.7419    2.5811   -1.2711 H   0  0  0  0  0  0  0  0  0  0  0  0
    6.3244   -1.0543    0.4145 H   0  0  0  0  0  0  0  0  0  0  0  0
  1  2  1  0
  1  3  1  0
  1  4  1  0
  2  5  1  0
  4  6  1  0
  5  7  1  0
  5  8  1  0
  7  9  1  0
  1 24  1  0
  2 10  1  0
  2 25  1  0
  3 11  1  0
  3 26  1  0
  3 27  1  0
  4 12  1  0
  4 13  1  0
  5 14  1  0
  6 15  1  0
  6 16  1  0
  6 28  1  0
  7 17  1  0
  7 18  1  0
  8 19  1  0
  8 20  1  0
  8 21  1  0
  9 22  1  0
  9 23  1  0
  9 29  1  0
M  END
