none
     RDKit          3D

 19 18  0  0  0  0  0  0  0  0999 V2000
    1.2256    1.2869    0.2995 C   0  0  0  0  0  0  0  0  0  0  0  0
    0.2189    0.1834   -0.0938 C   0  0  0  0  0  0  0  0  0  0  0  0
   -1.1547    0.7395   -0.3633 C   0  0  0  0  0  0  0  0  0  0  0  0
    0.8148    2.0623    1.5682 C   0  0  0  0  0  0  0  0  0  0  0  0
   -2.2975    0.1547    0.0267 C   0  0  0  0  0  0  0  0  0  0  0  0
   -3.6024    0.7064   -0.2517 C   0  0  0  0  0  0  0  0  0  0  0  0
   -4.7441    0.1225    0.1350 C   0  0  0  0  0  0  0  0  0  0  0  0
    0.5799   -0.3088   -1.0064 H   0  0  0  0  0  0  0  0  0  0  0  0
   -0.1097    2.6286    1.4105 H   0  0  0  0  0  0  0  0  0  0  0  0
    0.6650    1.3775    2.4097 H   0  0  0  0  0  0  0  0  0  0  0  0
    1.6007    2.7746    1.8423 H   0  0  0  0  0  0  0  0  0  0  0  0
   -2.2595   -0.7777    0.5852 H   0  0  0  0  0  0  0  0  0  0  0  0
   -3.6495    1.6435   -0.8029 H   0  0  0  0  0  0  0  0  0  0  0  0
    2.2068    0.8244    0.4687 H   0  0  0  0  0  0  0  0  0  0  0  0
    1.3457    1.9969   -0.5301 H   0  0  0  0  0  0  0  0  0  0  0  0
    0.1846   -0.5777    0.6959 H   0  0  0  0  0  0  0  0  0  0  0  0
   -1.1929    1.6614   -0.9402 H   0  0  0  0  0  0  0  0  0  0  0  0
   -5.7022    0.5776   -0.0988 H   0  0  0  0  0  0  0  0  0  0  0  0
   -4.7578   -0.8124    0.6869 H   0  0  0  0  0  0  0  0  0  0  0  0
  1  2  1  0
  1  4  1  0
  2  3  1  0
  3  5  2  0
  5  6  1  0
  6  7  2  0
  1 14  1  0
  1 15  1  0
  2  8  1  0
  2 16  1  0
  3 17  1  0
  4  9  1  0
  4 10  1  0
  4 11  1  0
  5 12  1  0
  6 13  1  0
  7 18  1  0
  7 19  1  0
M  END
