none
     RDKit          3D

 25 25  0  0  0  0  0  0  0  0999 V2000
    1.2891    1.2566    0.3092 C   0  0  0  0  0  0  0  0  0  0  0  0
    2.5089    0.3732    0.5489 C   0  0  0  0  0  0  0  0  0  0  0  0
    0.2362    0.2197   -0.1081 C   0  0  0  0  0  0  0  0  0  0  0  0
    1.9276   -0.8204    1.3184 C   0  0  0  0  0  0  0  0  0  0  0  0
    0.4361   -0.8765    0.9486 C   0  0  0  0  0  0  0  0  0  0  0  0
    3.6370    1.0707    1.2868 C   0  0  0  0  0  0  0  0  0  0  0  0
   -1.1498    0.7665   -0.3735 C   0  0  0  0  0  0  0  0  0  0  0  0
   -1.2324    2.0500   -1.1593 C   0  0  0  0  0  0  0  0  0  0  0  0
   -2.2749    0.1588    0.0441 C   0  0  0  0  0  0  0  0  0  0  0  0
    2.8933    0.0188   -0.4177 H   0  0  0  0  0  0  0  0  0  0  0  0
    0.5641   -0.2042   -1.0713 H   0  0  0  0  0  0  0  0  0  0  0  0
    2.4403   -1.7474    1.0381 H   0  0  0  0  0  0  0  0  0  0  0  0
    2.0369   -0.7021    2.4022 H   0  0  0  0  0  0  0  0  0  0  0  0
    0.1555   -1.8646    0.5687 H   0  0  0  0  0  0  0  0  0  0  0  0
   -0.1625   -0.6815    1.8472 H   0  0  0  0  0  0  0  0  0  0  0  0
    3.3060    1.4455    2.2609 H   0  0  0  0  0  0  0  0  0  0  0  0
   -0.8410    2.8864   -0.5716 H   0  0  0  0  0  0  0  0  0  0  0  0
   -2.2608    2.2953   -1.4417 H   0  0  0  0  0  0  0  0  0  0  0  0
   -2.2575   -0.7731    0.5998 H   0  0  0  0  0  0  0  0  0  0  0  0
    1.4881    1.9935   -0.4748 H   0  0  0  0  0  0  0  0  0  0  0  0
    0.9853    1.7912    1.2197 H   0  0  0  0  0  0  0  0  0  0  0  0
    4.4725    0.3821    1.4568 H   0  0  0  0  0  0  0  0  0  0  0  0
    4.0105    1.9204    0.7072 H   0  0  0  0  0  0  0  0  0  0  0  0
   -0.6495    1.9668   -2.0821 H   0  0  0  0  0  0  0  0  0  0  0  0
   -3.2551    0.5767   -0.1656 H   0  0  0  0  0  0  0  0  0  0  0  0
  1  2  1  0
  1  3  1  0
  2  4  1  0
  2  6  1  0
  3  5  1  0
  3  7  1  0
  4  5  1  0
  7  8  1  0
  7  9  2  3
  1 20  1  0
  1 21  1  0
  2 10  1  0
  3 11  1  0
  4 12  1  0
  4 13  1  0
  5 14  1  0
  5 15  1  0
  6 16  1  0
  6 22  1  0
  6 23  1  0
  8 17  1  0
  8 18  1  0
  8 24  1  0
  9 19  1  0
  9 25  1  0
M  END
