none
     RDKit          3D

 26 25  0  0  0  0  0  0  0  0999 V2000
    1.2301    1.2879    0.3000 C   0  0  0  0  0  0  0  0  0  0  0  0
    2.4774    0.4084    0.5535 C   0  0  0  0  0  0  0  0  0  0  0  0
    3.6442    1.0808    1.2731 C   0  0  0  0  0  0  0  0  0  0  0  0
    0.8118    2.0635    1.5694 C   0  0  0  0  0  0  0  0  0  0  0  0
    4.8536    0.1386    1.4567 C   0  0  0  0  0  0  0  0  0  0  0  0
    4.0850    2.3323    0.5080 C   0  0  0  0  0  0  0  0  0  0  0  0
    5.4384   -0.4599    0.1696 C   0  0  0  0  0  0  0  0  0  0  0  0
    6.5879   -1.4381    0.4222 C   0  0  0  0  0  0  0  0  0  0  0  0
    2.7899    0.0232   -0.4231 H   0  0  0  0  0  0  0  0  0  0  0  0
    3.3287    1.3856    2.2791 H   0  0  0  0  0  0  0  0  0  0  0  0
   -0.1416    2.5701    1.3896 H   0  0  0  0  0  0  0  0  0  0  0  0
    0.6778    1.3798    2.4141 H   0  0  0  0  0  0  0  0  0  0  0  0
    1.5392    2.8299    1.8505 H   0  0  0  0  0  0  0  0  0  0  0  0
    4.5471   -0.6855    2.1128 H   0  0  0  0  0  0  0  0  0  0  0  0
    5.6478    0.6741    1.9934 H   0  0  0  0  0  0  0  0  0  0  0  0
    3.3218    3.1148    0.5252 H   0  0  0  0  0  0  0  0  0  0  0  0
    4.9877    2.7620    0.9551 H   0  0  0  0  0  0  0  0  0  0  0  0
    4.3014    2.1104   -0.5424 H   0  0  0  0  0  0  0  0  0  0  0  0
    5.8047    0.3395   -0.4831 H   0  0  0  0  0  0  0  0  0  0  0  0
    4.6664   -1.0031   -0.3839 H   0  0  0  0  0  0  0  0  0  0  0  0
    6.2534   -2.2818    1.0341 H   0  0  0  0  0  0  0  0  0  0  0  0
    7.4136   -0.9411    0.9406 H   0  0  0  0  0  0  0  0  0  0  0  0
    0.4016    0.6466   -0.0261 H   0  0  0  0  0  0  0  0  0  0  0  0
    1.4242    1.9993   -0.5115 H   0  0  0  0  0  0  0  0  0  0  0  0
    2.1646   -0.4636    1.1414 H   0  0  0  0  0  0  0  0  0  0  0  0
    6.9662   -1.8318   -0.5270 H   0  0  0  0  0  0  0  0  0  0  0  0
  1  2  1  0
  1  4  1  0
  2  3  1  0
  3  5  1  0
  3  6  1  0
  5  7  1  0
  7  8  1  0
  1 23  1  0
  1 24  1  0
  2  9  1  0
  2 25  1  0
  3 10  1  0
  4 11  1  0
  4 12  1  0
  4 13  1  0
  5 14  1  0
  5 15  1  0
  6 16  1  0
  6 17  1  0
  6 18  1  0
  7 19  1  0
  7 20  1  0
  8 21  1  0
  8 22  1  0
  8 26  1  0
M  END
