none
     RDKit          3D

 20 19  0  0  0  0  0  0  0  0999 V2000
    3.6544    1.0690    1.2671 C   0  0  0  0  0  0  0  0  0  0  0  0
    4.8522    0.1384    1.4659 C   0  0  0  0  0  0  0  0  0  0  0  0
    5.4269   -0.4519    0.1666 C   0  0  0  0  0  0  0  0  0  0  0  0
    6.5899   -1.4362    0.4203 C   0  0  0  0  0  0  0  0  0  0  0  0
    7.2181   -1.9788   -0.8706 C   0  0  0  0  0  0  0  0  0  0  0  0
    7.7465   -0.8822   -1.7859 C   0  0  0  0  0  0  0  0  0  0  0  0
    3.3026    1.4496    2.2453 H   0  0  0  0  0  0  0  0  0  0  0  0
    4.5495   -0.6768    2.1227 H   0  0  0  0  0  0  0  0  0  0  0  0
    5.6412    0.6951    1.9809 H   0  0  0  0  0  0  0  0  0  0  0  0
    5.7739    0.3743   -0.4558 H   0  0  0  0  0  0  0  0  0  0  0  0
    4.6411   -0.9726   -0.3826 H   0  0  0  0  0  0  0  0  0  0  0  0
    6.2268   -2.2826    1.0209 H   0  0  0  0  0  0  0  0  0  0  0  0
    7.3660   -0.9395    1.0128 H   0  0  0  0  0  0  0  0  0  0  0  0
    8.0502   -2.6506   -0.6040 H   0  0  0  0  0  0  0  0  0  0  0  0
    6.9278   -0.3020   -2.2320 H   0  0  0  0  0  0  0  0  0  0  0  0
    8.3197   -1.3152   -2.6082 H   0  0  0  0  0  0  0  0  0  0  0  0
    8.4014   -0.1925   -1.2400 H   0  0  0  0  0  0  0  0  0  0  0  0
    2.8152    0.5460    0.7956 H   0  0  0  0  0  0  0  0  0  0  0  0
    3.9134    1.9345    0.6492 H   0  0  0  0  0  0  0  0  0  0  0  0
    6.4867   -2.5883   -1.4189 H   0  0  0  0  0  0  0  0  0  0  0  0
  1  2  1  0
  2  3  1  0
  3  4  1  0
  4  5  1  0
  5  6  1  0
  1  7  1  0
  1 18  1  0
  1 19  1  0
  2  8  1  0
  2  9  1  0
  3 10  1  0
  3 11  1  0
  4 12  1  0
  4 13  1  0
  5 14  1  0
  5 20  1  0
  6 15  1  0
  6 16  1  0
  6 17  1  0
M  END
