none
     RDKit          3D

 14 13  0  0  0  0  0  0  0  0999 V2000
   -1.1552    0.7420   -0.3607 C   0  0  0  0  0  0  0  0  0  0  0  0
   -2.2918    0.1572    0.0195 C   0  0  0  0  0  0  0  0  0  0  0  0
   -3.6015    0.7066   -0.2513 C   0  0  0  0  0  0  0  0  0  0  0  0
   -4.7439    0.1185    0.1376 C   0  0  0  0  0  0  0  0  0  0  0  0
   -4.7830   -1.1322    0.8774 C   0  0  0  0  0  0  0  0  0  0  0  0
   -4.0613   -1.3522    1.9883 C   0  0  0  0  0  0  0  0  0  0  0  0
   -2.1940   -0.8231    0.4788 H   0  0  0  0  0  0  0  0  0  0  0  0
   -3.6517    1.6372   -0.8119 H   0  0  0  0  0  0  0  0  0  0  0  0
   -4.1297   -2.3001    2.5073 H   0  0  0  0  0  0  0  0  0  0  0  0
   -3.4215   -0.5922    2.4330 H   0  0  0  0  0  0  0  0  0  0  0  0
   -0.1988    0.2628   -0.1712 H   0  0  0  0  0  0  0  0  0  0  0  0
   -1.1406    1.7001   -0.8678 H   0  0  0  0  0  0  0  0  0  0  0  0
   -5.7029    0.5541   -0.1391 H   0  0  0  0  0  0  0  0  0  0  0  0
   -5.4574   -1.8993    0.5035 H   0  0  0  0  0  0  0  0  0  0  0  0
  1  2  2  0
  2  3  1  0
  3  4  2  0
  4  5  1  0
  5  6  2  0
  1 11  1  0
  1 12  1  0
  2  7  1  0
  3  8  1  0
  4 13  1  0
  5 14  1  0
  6  9  1  0
  6 10  1  0
M  END
