none
     RDKit          3D

 14 13  0  0  0  0  0  0  0  0999 V2000
    1.2361    1.2669    0.3125 C   0  0  0  0  0  0  0  0  0  0  0  0
    2.4614    0.3929    0.5354 C   0  0  0  0  0  0  0  0  0  0  0  0
    4.1073    2.3378    0.5105 C   0  0  0  0  0  0  0  0  0  0  0  0
    3.6168    1.1036    1.2483 C   0  0  0  0  0  0  0  0  0  0  0  0
    2.8126    0.0034   -0.4266 H   0  0  0  0  0  0  0  0  0  0  0  0
    3.3502    3.1301    0.5214 H   0  0  0  0  0  0  0  0  0  0  0  0
    5.0067    2.7333    0.9920 H   0  0  0  0  0  0  0  0  0  0  0  0
    4.3508    2.1097   -0.5347 H   0  0  0  0  0  0  0  0  0  0  0  0
    3.3086    1.3863    2.2635 H   0  0  0  0  0  0  0  0  0  0  0  0
    0.4158    0.6661   -0.0964 H   0  0  0  0  0  0  0  0  0  0  0  0
    1.4377    2.0732   -0.4037 H   0  0  0  0  0  0  0  0  0  0  0  0
    0.8936    1.7153    1.2500 H   0  0  0  0  0  0  0  0  0  0  0  0
    2.1719   -0.4716    1.1390 H   0  0  0  0  0  0  0  0  0  0  0  0
    4.4532    0.3991    1.3586 H   0  0  0  0  0  0  0  0  0  0  0  0
  1  2  1  0
  2  4  1  0
  3  4  1  0
  1 10  1  0
  1 11  1  0
  1 12  1  0
  2  5  1  0
  2 13  1  0
  3  6  1  0
  3  7  1  0
  3  8  1  0
  4  9  1  0
  4 14  1  0
M  END
