none
     RDKit          3D

 25 25  0  0  0  0  0  0  0  0999 V2000
    1.2171    1.2650    0.2914 C   0  0  0  0  0  0  0  0  0  0  0  0
    2.5159    0.4760    0.5641 C   0  0  0  0  0  0  0  0  0  0  0  0
    0.1811    0.1773   -0.1113 C   0  0  0  0  0  0  0  0  0  0  0  0
    1.3797    2.2640   -0.8781 C   0  0  0  0  0  0  0  0  0  0  0  0
   -1.1781    0.7679   -0.3697 C   0  0  0  0  0  0  0  0  0  0  0  0
    0.8195    1.9898    1.5883 C   0  0  0  0  0  0  0  0  0  0  0  0
    0.1858    2.3119   -1.8460 C   0  0  0  0  0  0  0  0  0  0  0  0
   -1.1649    2.0526   -1.1611 C   0  0  0  0  0  0  0  0  0  0  0  0
   -2.3170    0.2013    0.0578 C   0  0  0  0  0  0  0  0  0  0  0  0
    2.8354   -0.0906   -0.3168 H   0  0  0  0  0  0  0  0  0  0  0  0
    0.5153   -0.3521   -1.0153 H   0  0  0  0  0  0  0  0  0  0  0  0
    2.2753    2.0273   -1.4658 H   0  0  0  0  0  0  0  0  0  0  0  0
    1.5526    3.2725   -0.4811 H   0  0  0  0  0  0  0  0  0  0  0  0
   -0.0786    2.6004    1.4645 H   0  0  0  0  0  0  0  0  0  0  0  0
    0.6252    1.2736    2.3960 H   0  0  0  0  0  0  0  0  0  0  0  0
    1.6219    2.6557    1.9245 H   0  0  0  0  0  0  0  0  0  0  0  0
    0.3350    1.5554   -2.6282 H   0  0  0  0  0  0  0  0  0  0  0  0
    0.1633    3.2812   -2.3564 H   0  0  0  0  0  0  0  0  0  0  0  0
   -1.3896    2.8888   -0.4910 H   0  0  0  0  0  0  0  0  0  0  0  0
   -1.9516    2.0298   -1.9265 H   0  0  0  0  0  0  0  0  0  0  0  0
   -2.3135   -0.7267    0.6240 H   0  0  0  0  0  0  0  0  0  0  0  0
    2.3930   -0.2296    1.3942 H   0  0  0  0  0  0  0  0  0  0  0  0
    3.3318    1.1578    0.8271 H   0  0  0  0  0  0  0  0  0  0  0  0
    0.1121   -0.5806    0.6818 H   0  0  0  0  0  0  0  0  0  0  0  0
   -3.2840    0.6522   -0.1494 H   0  0  0  0  0  0  0  0  0  0  0  0
  1  2  1  0
  1  3  1  0
  1  4  1  0
  1  6  1  0
  3  5  1  0
  4  7  1  0
  5  8  1  0
  5  9  2  3
  7  8  1  0
  2 10  1  0
  2 22  1  0
  2 23  1  0
  3 11  1  0
  3 24  1  0
  4 12  1  0
  4 13  1  0
  6 14  1  0
  6 15  1  0
  6 16  1  0
  7 17  1  0
  7 18  1  0
  8 19  1  0
  8 20  1  0
  9 21  1  0
  9 25  1  0
M  END
