none
     RDKit          3D

 26 25  0  0  0  0  0  0  0  0999 V2000
    1.2320    1.2865    0.2980 C   0  0  0  0  0  0  0  0  0  0  0  0
    2.4774    0.4086    0.5527 C   0  0  0  0  0  0  0  0  0  0  0  0
    3.6424    1.0794    1.2735 C   0  0  0  0  0  0  0  0  0  0  0  0
    4.8536    0.1399    1.4573 C   0  0  0  0  0  0  0  0  0  0  0  0
    5.4370   -0.4588    0.1696 C   0  0  0  0  0  0  0  0  0  0  0  0
    6.5899   -1.4381    0.4219 C   0  0  0  0  0  0  0  0  0  0  0  0
    7.2188   -1.9868   -0.8720 C   0  0  0  0  0  0  0  0  0  0  0  0
    6.1991   -2.8355   -1.6320 C   0  0  0  0  0  0  0  0  0  0  0  0
    2.8024    0.0524   -0.4298 H   0  0  0  0  0  0  0  0  0  0  0  0
    3.3126    1.4303    2.2589 H   0  0  0  0  0  0  0  0  0  0  0  0
    4.5570   -0.6786    2.1246 H   0  0  0  0  0  0  0  0  0  0  0  0
    5.6421    0.6957    1.9790 H   0  0  0  0  0  0  0  0  0  0  0  0
    5.7789    0.3537   -0.4819 H   0  0  0  0  0  0  0  0  0  0  0  0
    4.6456   -0.9907   -0.3640 H   0  0  0  0  0  0  0  0  0  0  0  0
    6.2391   -2.2712    1.0439 H   0  0  0  0  0  0  0  0  0  0  0  0
    7.3725   -0.9261    0.9932 H   0  0  0  0  0  0  0  0  0  0  0  0
    8.0851   -2.6078   -0.6143 H   0  0  0  0  0  0  0  0  0  0  0  0
    5.3935   -2.2232   -2.0481 H   0  0  0  0  0  0  0  0  0  0  0  0
    6.6901   -3.3381   -2.4708 H   0  0  0  0  0  0  0  0  0  0  0  0
    5.7601   -3.6051   -0.9883 H   0  0  0  0  0  0  0  0  0  0  0  0
    0.4606    0.7062   -0.2211 H   0  0  0  0  0  0  0  0  0  0  0  0
    1.4917    2.1513   -0.3213 H   0  0  0  0  0  0  0  0  0  0  0  0
    0.8174    1.6465    1.2447 H   0  0  0  0  0  0  0  0  0  0  0  0
    2.1636   -0.4742    1.1222 H   0  0  0  0  0  0  0  0  0  0  0  0
    3.9594    1.9630    0.7079 H   0  0  0  0  0  0  0  0  0  0  0  0
    7.5753   -1.1668   -1.5062 H   0  0  0  0  0  0  0  0  0  0  0  0
  1  2  1  0
  2  3  1  0
  3  4  1  0
  4  5  1  0
  5  6  1  0
  6  7  1  0
  7  8  1  0
  1 21  1  0
  1 22  1  0
  1 23  1  0
  2  9  1  0
  2 24  1  0
  3 10  1  0
  3 25  1  0
  4 11  1  0
  4 12  1  0
  5 13  1  0
  5 14  1  0
  6 15  1  0
  6 16  1  0
  7 17  1  0
  7 26  1  0
  8 18  1  0
  8 19  1  0
  8 20  1  0
M  END
