none
     RDKit          3D

 23 22  0  0  0  0  0  0  0  0999 V2000
    1.1808    1.2817    0.3331 C   0  0  0  0  0  0  0  0  0  0  0  0
    2.4151    0.3961    0.5666 C   0  0  0  0  0  0  0  0  0  0  0  0
    2.0391   -0.8648    1.3407 C   0  0  0  0  0  0  0  0  0  0  0  0
    1.3568    2.2561   -0.8479 C   0  0  0  0  0  0  0  0  0  0  0  0
    0.8178    2.0583    1.6048 C   0  0  0  0  0  0  0  0  0  0  0  0
    0.1676    2.3340   -1.8215 C   0  0  0  0  0  0  0  0  0  0  0  0
   -1.2159    2.1327   -1.2146 C   0  0  0  0  0  0  0  0  0  0  0  0
    2.8654    0.0803   -0.3848 H   0  0  0  0  0  0  0  0  0  0  0  0
    2.9135   -1.4987    1.4745 H   0  0  0  0  0  0  0  0  0  0  0  0
    1.6290   -0.6326    2.3342 H   0  0  0  0  0  0  0  0  0  0  0  0
    2.2427    1.9935   -1.4458 H   0  0  0  0  0  0  0  0  0  0  0  0
    1.5609    3.2686   -0.4670 H   0  0  0  0  0  0  0  0  0  0  0  0
   -0.0038    2.7613    1.4286 H   0  0  0  0  0  0  0  0  0  0  0  0
    0.5034    1.3867    2.4067 H   0  0  0  0  0  0  0  0  0  0  0  0
    1.6707    2.6366    1.9624 H   0  0  0  0  0  0  0  0  0  0  0  0
    0.3044    1.5787   -2.6040 H   0  0  0  0  0  0  0  0  0  0  0  0
    0.1906    3.2981   -2.3379 H   0  0  0  0  0  0  0  0  0  0  0  0
   -1.3951    2.7952   -0.3644 H   0  0  0  0  0  0  0  0  0  0  0  0
   -1.9772    2.3527   -1.9725 H   0  0  0  0  0  0  0  0  0  0  0  0
    0.3595    0.5855    0.1060 H   0  0  0  0  0  0  0  0  0  0  0  0
    3.2035    0.9393    1.1095 H   0  0  0  0  0  0  0  0  0  0  0  0
    1.2779   -1.4482    0.7935 H   0  0  0  0  0  0  0  0  0  0  0  0
   -1.3856    1.0952   -0.9039 H   0  0  0  0  0  0  0  0  0  0  0  0
  1  2  1  0
  1  4  1  0
  1  5  1  0
  2  3  1  0
  4  6  1  0
  6  7  1  0
  1 20  1  0
  2  8  1  0
  2 21  1  0
  3  9  1  0
  3 10  1  0
  3 22  1  0
  4 11  1  0
  4 12  1  0
  5 13  1  0
  5 14  1  0
  5 15  1  0
  6 16  1  0
  6 17  1  0
  7 18  1  0
  7 19  1  0
  7 23  1  0
M  END
