none
     RDKit          3D

 29 28  0  0  0  0  0  0  0  0999 V2000
    1.2310    1.2859    0.2976 C   0  0  0  0  0  0  0  0  0  0  0  0
    2.4770    0.4084    0.5531 C   0  0  0  0  0  0  0  0  0  0  0  0
    3.6433    1.0811    1.2731 C   0  0  0  0  0  0  0  0  0  0  0  0
    4.8532    0.1384    1.4572 C   0  0  0  0  0  0  0  0  0  0  0  0
    4.0843    2.3325    0.5084 C   0  0  0  0  0  0  0  0  0  0  0  0
    5.4376   -0.4592    0.1695 C   0  0  0  0  0  0  0  0  0  0  0  0
    6.5892   -1.4387    0.4215 C   0  0  0  0  0  0  0  0  0  0  0  0
    7.2211   -1.9850   -0.8725 C   0  0  0  0  0  0  0  0  0  0  0  0
    7.7447   -0.8772   -1.7861 C   0  0  0  0  0  0  0  0  0  0  0  0
    2.7928    0.0307   -0.4253 H   0  0  0  0  0  0  0  0  0  0  0  0
    3.3091    1.3929    2.2716 H   0  0  0  0  0  0  0  0  0  0  0  0
    4.5460   -0.6858    2.1125 H   0  0  0  0  0  0  0  0  0  0  0  0
    5.6465    0.6742    1.9949 H   0  0  0  0  0  0  0  0  0  0  0  0
    3.3182    3.1127    0.5612 H   0  0  0  0  0  0  0  0  0  0  0  0
    4.9977    2.7544    0.9410 H   0  0  0  0  0  0  0  0  0  0  0  0
    4.2735    2.1216   -0.5496 H   0  0  0  0  0  0  0  0  0  0  0  0
    5.7857    0.3634   -0.4614 H   0  0  0  0  0  0  0  0  0  0  0  0
    4.6637   -0.9936   -0.3899 H   0  0  0  0  0  0  0  0  0  0  0  0
    6.2274   -2.2825    1.0211 H   0  0  0  0  0  0  0  0  0  0  0  0
    7.3665   -0.9395    1.0126 H   0  0  0  0  0  0  0  0  0  0  0  0
    8.0502   -2.6506   -0.6036 H   0  0  0  0  0  0  0  0  0  0  0  0
    6.9278   -0.3052   -2.2361 H   0  0  0  0  0  0  0  0  0  0  0  0
    8.3233   -1.3151   -2.6056 H   0  0  0  0  0  0  0  0  0  0  0  0
    8.3979   -0.1898   -1.2392 H   0  0  0  0  0  0  0  0  0  0  0  0
    0.4233    0.6722   -0.1161 H   0  0  0  0  0  0  0  0  0  0  0  0
    1.4460    2.0832   -0.4208 H   0  0  0  0  0  0  0  0  0  0  0  0
    0.8780    1.7363    1.2301 H   0  0  0  0  0  0  0  0  0  0  0  0
    2.1609   -0.4644    1.1368 H   0  0  0  0  0  0  0  0  0  0  0  0
    6.4869   -2.5887   -1.4188 H   0  0  0  0  0  0  0  0  0  0  0  0
  1  2  1  0
  2  3  1  0
  3  4  1  0
  3  5  1  0
  4  6  1  0
  6  7  1  0
  7  8  1  0
  8  9  1  0
  1 25  1  0
  1 26  1  0
  1 27  1  0
  2 10  1  0
  2 28  1  0
  3 11  1  0
  4 12  1  0
  4 13  1  0
  5 14  1  0
  5 15  1  0
  5 16  1  0
  6 17  1  0
  6 18  1  0
  7 19  1  0
  7 20  1  0
  8 21  1  0
  8 29  1  0
  9 22  1  0
  9 23  1  0
  9 24  1  0
M  END
