none
     RDKit          3D

 23 22  0  0  0  0  0  0  0  0999 V2000
    1.2314    1.2405    0.2881 C   0  0  0  0  0  0  0  0  0  0  0  0
    2.4932    0.4072    0.5414 C   0  0  0  0  0  0  0  0  0  0  0  0
    1.3475    2.2366   -0.8743 C   0  0  0  0  0  0  0  0  0  0  0  0
    3.6445    1.1152    1.2508 C   0  0  0  0  0  0  0  0  0  0  0  0
    0.1374    2.3205   -1.8121 C   0  0  0  0  0  0  0  0  0  0  0  0
   -1.2138    2.0846   -1.1555 C   0  0  0  0  0  0  0  0  0  0  0  0
    4.1672    2.3537    0.5455 C   0  0  0  0  0  0  0  0  0  0  0  0
    2.8501   -0.0183   -0.4089 H   0  0  0  0  0  0  0  0  0  0  0  0
    2.2351    2.0309   -1.4911 H   0  0  0  0  0  0  0  0  0  0  0  0
    1.4952    3.2386   -0.4436 H   0  0  0  0  0  0  0  0  0  0  0  0
    3.3401    1.3823    2.2746 H   0  0  0  0  0  0  0  0  0  0  0  0
    0.2610    1.5821   -2.6151 H   0  0  0  0  0  0  0  0  0  0  0  0
    0.1401    3.3045   -2.3016 H   0  0  0  0  0  0  0  0  0  0  0  0
   -1.3129    2.6602   -0.2302 H   0  0  0  0  0  0  0  0  0  0  0  0
   -2.0151    2.3882   -1.8303 H   0  0  0  0  0  0  0  0  0  0  0  0
    3.4647    3.1919    0.6414 H   0  0  0  0  0  0  0  0  0  0  0  0
    5.1004    2.6710    0.9941 H   0  0  0  0  0  0  0  0  0  0  0  0
    4.3557    2.1592   -0.5190 H   0  0  0  0  0  0  0  0  0  0  0  0
    0.4344    0.5179    0.0894 H   0  0  0  0  0  0  0  0  0  0  0  0
    0.9478    1.7732    1.2050 H   0  0  0  0  0  0  0  0  0  0  0  0
    2.2077   -0.4436    1.1647 H   0  0  0  0  0  0  0  0  0  0  0  0
    4.4750    0.3957    1.3578 H   0  0  0  0  0  0  0  0  0  0  0  0
   -1.3732    1.0213   -0.9333 H   0  0  0  0  0  0  0  0  0  0  0  0
  1  2  1  0
  1  3  1  0
  2  4  1  0
  3  5  1  0
  4  7  1  0
  5  6  1  0
  1 19  1  0
  1 20  1  0
  2  8  1  0
  2 21  1  0
  3  9  1  0
  3 10  1  0
  4 11  1  0
  4 22  1  0
  5 12  1  0
  5 13  1  0
  6 14  1  0
  6 15  1  0
  6 23  1  0
  7 16  1  0
  7 17  1  0
  7 18  1  0
M  END
