none
     RDKit          3D

 14 13  0  0  0  0  0  0  0  0999 V2000
    1.2564    1.2972    0.3272 C   0  0  0  0  0  0  0  0  0  0  0  0
    2.4720    0.3983    0.5559 C   0  0  0  0  0  0  0  0  0  0  0  0
    0.8054    2.0582    1.5607 C   0  0  0  0  0  0  0  0  0  0  0  0
    3.6385    1.0798    1.2612 C   0  0  0  0  0  0  0  0  0  0  0  0
    2.8165    0.0176   -0.4097 H   0  0  0  0  0  0  0  0  0  0  0  0
   -0.1318    2.5790    1.3699 H   0  0  0  0  0  0  0  0  0  0  0  0
    0.6527    1.3822    2.4106 H   0  0  0  0  0  0  0  0  0  0  0  0
    1.5456    2.8150    1.8562 H   0  0  0  0  0  0  0  0  0  0  0  0
    3.3848    1.3354    2.2952 H   0  0  0  0  0  0  0  0  0  0  0  0
    0.4213    0.6698   -0.0345 H   0  0  0  0  0  0  0  0  0  0  0  0
    1.4747    2.0144   -0.4766 H   0  0  0  0  0  0  0  0  0  0  0  0
    2.1710   -0.4728    1.1484 H   0  0  0  0  0  0  0  0  0  0  0  0
    4.5036    0.4081    1.2943 H   0  0  0  0  0  0  0  0  0  0  0  0
    3.9352    1.9920    0.7408 H   0  0  0  0  0  0  0  0  0  0  0  0
  1  2  1  0
  1  3  1  0
  2  4  1  0
  1 10  1  0
  1 11  1  0
  2  5  1  0
  2 12  1  0
  3  6  1  0
  3  7  1  0
  3  8  1  0
  4  9  1  0
  4 13  1  0
  4 14  1  0
M  END
