none
     RDKit          3D

 12 11  0  0  0  0  0  0  0  0999 V2000
   -6.6310   -0.6813   -2.1085 O   0  0  0  0  0  0  0  0  0  0  0  0
   -7.0569   -0.3330   -0.7947 C   0  0  0  0  0  0  0  0  0  0  0  0
   -7.1204   -1.5893    0.0605 C   0  0  0  0  0  0  0  0  0  0  0  0
   -6.1014    0.6992   -0.2159 C   0  0  0  0  0  0  0  0  0  0  0  0
   -5.7416   -1.0692   -2.0419 H   0  0  0  0  0  0  0  0  0  0  0  0
   -8.0579    0.1025   -0.8793 H   0  0  0  0  0  0  0  0  0  0  0  0
   -7.7976   -2.3230   -0.3899 H   0  0  0  0  0  0  0  0  0  0  0  0
   -7.4717   -1.3640    1.0719 H   0  0  0  0  0  0  0  0  0  0  0  0
   -6.0584    1.5830   -0.8615 H   0  0  0  0  0  0  0  0  0  0  0  0
   -6.4136    1.0124    0.7850 H   0  0  0  0  0  0  0  0  0  0  0  0
   -6.1380   -2.0694    0.1294 H   0  0  0  0  0  0  0  0  0  0  0  0
   -5.0815    0.3032   -0.1571 H   0  0  0  0  0  0  0  0  0  0  0  0
  1  2  1  0
  2  3  1  0
  2  4  1  0
  1  5  1  0
  2  6  1  0
  3  7  1  0
  3  8  1  0
  3 11  1  0
  4  9  1  0
  4 10  1  0
  4 12  1  0
M  END
