none
     RDKit          3D

 15 14  0  0  0  0  0  0  0  0999 V2000
    1.2492    1.2466    0.3316 C   0  0  0  0  0  0  0  0  0  0  0  0
    0.2250    0.2086   -0.0921 C   0  0  0  0  0  0  0  0  0  0  0  0
   -1.1480    0.7816   -0.3861 C   0  0  0  0  0  0  0  0  0  0  0  0
   -1.2152    2.0550   -1.1691 C   0  0  0  0  0  0  0  0  0  0  0  0
   -2.2693    0.1665    0.0323 C   0  0  0  0  0  0  0  0  0  0  0  0
    0.5894   -0.3020   -0.9961 H   0  0  0  0  0  0  0  0  0  0  0  0
   -0.8241    2.8916   -0.5734 H   0  0  0  0  0  0  0  0  0  0  0  0
   -2.2297    2.3033   -1.4654 H   0  0  0  0  0  0  0  0  0  0  0  0
   -2.2398   -0.7618    0.5959 H   0  0  0  0  0  0  0  0  0  0  0  0
    2.1807    0.7646    0.6233 H   0  0  0  0  0  0  0  0  0  0  0  0
    1.4794    1.9409   -0.4910 H   0  0  0  0  0  0  0  0  0  0  0  0
    0.8873    1.8436    1.1815 H   0  0  0  0  0  0  0  0  0  0  0  0
    0.1598   -0.5606    0.6874 H   0  0  0  0  0  0  0  0  0  0  0  0
   -0.6080    1.9743   -2.0815 H   0  0  0  0  0  0  0  0  0  0  0  0
   -3.2540    0.5754   -0.1723 H   0  0  0  0  0  0  0  0  0  0  0  0
  1  2  1  0
  2  3  1  0
  3  4  1  0
  3  5  2  3
  1 10  1  0
  1 11  1  0
  1 12  1  0
  2  6  1  0
  2 13  1  0
  4  7  1  0
  4  8  1  0
  4 14  1  0
  5  9  1  0
  5 15  1  0
M  END
