none
     RDKit          3D

 26 25  0  0  0  0  0  0  0  0999 V2000
    1.1615    1.2557    0.3809 C   0  0  0  0  0  0  0  0  0  0  0  0
    2.4207    0.3628    0.5732 C   0  0  0  0  0  0  0  0  0  0  0  0
    2.0894   -0.9030    1.3721 C   0  0  0  0  0  0  0  0  0  0  0  0
    1.3560    2.2244   -0.8167 C   0  0  0  0  0  0  0  0  0  0  0  0
    3.6050    1.0967    1.2047 C   0  0  0  0  0  0  0  0  0  0  0  0
    0.7702    2.0437    1.6394 C   0  0  0  0  0  0  0  0  0  0  0  0
    0.1904    2.3443   -1.8135 C   0  0  0  0  0  0  0  0  0  0  0  0
   -1.2184    2.1926   -1.2596 C   0  0  0  0  0  0  0  0  0  0  0  0
    2.7391    0.0146   -0.4142 H   0  0  0  0  0  0  0  0  0  0  0  0
    2.9641   -1.5536    1.4413 H   0  0  0  0  0  0  0  0  0  0  0  0
    1.7697   -0.6691    2.3965 H   0  0  0  0  0  0  0  0  0  0  0  0
    2.2433    1.9430   -1.3995 H   0  0  0  0  0  0  0  0  0  0  0  0
    1.5749    3.2309   -0.4336 H   0  0  0  0  0  0  0  0  0  0  0  0
    3.4102    1.3553    2.2519 H   0  0  0  0  0  0  0  0  0  0  0  0
   -0.1745    2.5757    1.4871 H   0  0  0  0  0  0  0  0  0  0  0  0
    0.6363    1.3780    2.4939 H   0  0  0  0  0  0  0  0  0  0  0  0
    1.5242    2.7922    1.9034 H   0  0  0  0  0  0  0  0  0  0  0  0
    0.3245    1.5697   -2.5805 H   0  0  0  0  0  0  0  0  0  0  0  0
    0.2761    3.3035   -2.3392 H   0  0  0  0  0  0  0  0  0  0  0  0
   -1.4066    2.9193   -0.4631 H   0  0  0  0  0  0  0  0  0  0  0  0
   -1.9451    2.3810   -2.0542 H   0  0  0  0  0  0  0  0  0  0  0  0
    0.3396    0.5706    0.1458 H   0  0  0  0  0  0  0  0  0  0  0  0
    1.2886   -1.4753    0.8886 H   0  0  0  0  0  0  0  0  0  0  0  0
    4.4999    0.4626    1.1861 H   0  0  0  0  0  0  0  0  0  0  0  0
    3.8360    2.0162    0.6597 H   0  0  0  0  0  0  0  0  0  0  0  0
   -1.4141    1.1868   -0.8812 H   0  0  0  0  0  0  0  0  0  0  0  0
  1  2  1  0
  1  4  1  0
  1  6  1  0
  2  3  1  0
  2  5  1  0
  4  7  1  0
  7  8  1  0
  1 22  1  0
  2  9  1  0
  3 10  1  0
  3 11  1  0
  3 23  1  0
  4 12  1  0
  4 13  1  0
  5 14  1  0
  5 24  1  0
  5 25  1  0
  6 15  1  0
  6 16  1  0
  6 17  1  0
  7 18  1  0
  7 19  1  0
  8 20  1  0
  8 21  1  0
  8 26  1  0
M  END
