none
     RDKit          3D

 26 25  0  0  0  0  0  0  0  0999 V2000
    1.2298    1.2785    0.2969 C   0  0  0  0  0  0  0  0  0  0  0  0
    2.4814    0.4103    0.5547 C   0  0  0  0  0  0  0  0  0  0  0  0
    0.2146    0.1847   -0.0961 C   0  0  0  0  0  0  0  0  0  0  0  0
    3.6436    1.0818    1.2731 C   0  0  0  0  0  0  0  0  0  0  0  0
    4.8536    0.1388    1.4569 C   0  0  0  0  0  0  0  0  0  0  0  0
    4.0842    2.3325    0.5083 C   0  0  0  0  0  0  0  0  0  0  0  0
    5.4384   -0.4599    0.1696 C   0  0  0  0  0  0  0  0  0  0  0  0
    6.5879   -1.4381    0.4222 C   0  0  0  0  0  0  0  0  0  0  0  0
    2.8129    0.0330   -0.4207 H   0  0  0  0  0  0  0  0  0  0  0  0
    0.5501   -0.3872   -0.9697 H   0  0  0  0  0  0  0  0  0  0  0  0
    3.3093    1.3936    2.2716 H   0  0  0  0  0  0  0  0  0  0  0  0
    4.5480   -0.6849    2.1139 H   0  0  0  0  0  0  0  0  0  0  0  0
    5.6478    0.6750    1.9930 H   0  0  0  0  0  0  0  0  0  0  0  0
    3.3069    3.1027    0.5392 H   0  0  0  0  0  0  0  0  0  0  0  0
    4.9846    2.7669    0.9554 H   0  0  0  0  0  0  0  0  0  0  0  0
    4.2961    2.1168   -0.5443 H   0  0  0  0  0  0  0  0  0  0  0  0
    5.8040    0.3394   -0.4837 H   0  0  0  0  0  0  0  0  0  0  0  0
    4.6671   -1.0042   -0.3834 H   0  0  0  0  0  0  0  0  0  0  0  0
    6.2538   -2.2817    1.0344 H   0  0  0  0  0  0  0  0  0  0  0  0
    7.4142   -0.9413    0.9400 H   0  0  0  0  0  0  0  0  0  0  0  0
    1.3813    1.9922   -0.5209 H   0  0  0  0  0  0  0  0  0  0  0  0
    0.9036    1.8059    1.1996 H   0  0  0  0  0  0  0  0  0  0  0  0
    2.2095   -0.4731    1.1498 H   0  0  0  0  0  0  0  0  0  0  0  0
    0.0256   -0.5110    0.7307 H   0  0  0  0  0  0  0  0  0  0  0  0
   -0.7389    0.6521   -0.3531 H   0  0  0  0  0  0  0  0  0  0  0  0
    6.9661   -1.8323   -0.5268 H   0  0  0  0  0  0  0  0  0  0  0  0
  1  2  1  0
  1  3  1  0
  2  4  1  0
  4  5  1  0
  4  6  1  0
  5  7  1  0
  7  8  1  0
  1 21  1  0
  1 22  1  0
  2  9  1  0
  2 23  1  0
  3 10  1  0
  3 24  1  0
  3 25  1  0
  4 11  1  0
  5 12  1  0
  5 13  1  0
  6 14  1  0
  6 15  1  0
  6 16  1  0
  7 17  1  0
  7 18  1  0
  8 19  1  0
  8 20  1  0
  8 26  1  0
M  END
