none
     RDKit          3D

 20 19  0  0  0  0  0  0  0  0999 V2000
    2.4797    0.4093    0.5545 C   0  0  0  0  0  0  0  0  0  0  0  0
    3.6442    1.0795    1.2734 C   0  0  0  0  0  0  0  0  0  0  0  0
    4.8536    0.1388    1.4568 C   0  0  0  0  0  0  0  0  0  0  0  0
    4.0832    2.3322    0.5082 C   0  0  0  0  0  0  0  0  0  0  0  0
    5.4381   -0.4598    0.1696 C   0  0  0  0  0  0  0  0  0  0  0  0
    6.5878   -1.4382    0.4222 C   0  0  0  0  0  0  0  0  0  0  0  0
    2.7139    0.1842   -0.4909 H   0  0  0  0  0  0  0  0  0  0  0  0
    3.3047    1.3869    2.2714 H   0  0  0  0  0  0  0  0  0  0  0  0
    4.5479   -0.6851    2.1136 H   0  0  0  0  0  0  0  0  0  0  0  0
    5.6473    0.6756    1.9926 H   0  0  0  0  0  0  0  0  0  0  0  0
    3.2700    3.0651    0.4823 H   0  0  0  0  0  0  0  0  0  0  0  0
    4.9419    2.8082    0.9937 H   0  0  0  0  0  0  0  0  0  0  0  0
    4.3547    2.1081   -0.5286 H   0  0  0  0  0  0  0  0  0  0  0  0
    5.8073    0.3391   -0.4820 H   0  0  0  0  0  0  0  0  0  0  0  0
    4.6598   -0.9956   -0.3835 H   0  0  0  0  0  0  0  0  0  0  0  0
    6.2531   -2.2817    1.0340 H   0  0  0  0  0  0  0  0  0  0  0  0
    7.4137   -0.9412    0.9405 H   0  0  0  0  0  0  0  0  0  0  0  0
    1.6017    1.0642    0.5578 H   0  0  0  0  0  0  0  0  0  0  0  0
    2.1996   -0.5246    1.0523 H   0  0  0  0  0  0  0  0  0  0  0  0
    6.9658   -1.8320   -0.5271 H   0  0  0  0  0  0  0  0  0  0  0  0
  1  2  1  0
  2  3  1  0
  2  4  1  0
  3  5  1  0
  5  6  1  0
  1  7  1  0
  1 18  1  0
  1 19  1  0
  2  8  1  0
  3  9  1  0
  3 10  1  0
  4 11  1  0
  4 12  1  0
  4 13  1  0
  5 14  1  0
  5 15  1  0
  6 16  1  0
  6 17  1  0
  6 20  1  0
M  END
