none
     RDKit          3D

 26 25  0  0  0  0  0  0  0  0999 V2000
    2.4778    0.4111    0.5634 C   0  0  0  0  0  0  0  0  0  0  0  0
    1.9159   -0.8012    1.3033 C   0  0  0  0  0  0  0  0  0  0  0  0
    0.4363   -0.9139    0.9705 C   0  0  0  0  0  0  0  0  0  0  0  0
    3.6579    1.0681    1.2658 C   0  0  0  0  0  0  0  0  0  0  0  0
    4.8592    0.1376    1.4649 C   0  0  0  0  0  0  0  0  0  0  0  0
    5.4360   -0.4585    0.1636 C   0  0  0  0  0  0  0  0  0  0  0  0
    6.5943   -1.4413    0.4233 C   0  0  0  0  0  0  0  0  0  0  0  0
    7.2165   -1.9773   -0.8642 C   0  0  0  0  0  0  0  0  0  0  0  0
    2.7485    0.1250   -0.4676 H   0  0  0  0  0  0  0  0  0  0  0  0
    2.4525   -1.7269    1.0047 H   0  0  0  0  0  0  0  0  0  0  0  0
    2.0387   -0.7042    2.3955 H   0  0  0  0  0  0  0  0  0  0  0  0
    0.0081   -1.8233    1.3832 H   0  0  0  0  0  0  0  0  0  0  0  0
   -0.1155   -0.0556    1.3951 H   0  0  0  0  0  0  0  0  0  0  0  0
    3.3208    1.4393    2.2570 H   0  0  0  0  0  0  0  0  0  0  0  0
    4.5834   -0.6747    2.1416 H   0  0  0  0  0  0  0  0  0  0  0  0
    5.6454    0.7097    1.9623 H   0  0  0  0  0  0  0  0  0  0  0  0
    5.7862    0.3528   -0.4788 H   0  0  0  0  0  0  0  0  0  0  0  0
    4.6580   -0.9963   -0.3789 H   0  0  0  0  0  0  0  0  0  0  0  0
    6.2307   -2.2854    1.0218 H   0  0  0  0  0  0  0  0  0  0  0  0
    7.3741   -0.9399    1.0029 H   0  0  0  0  0  0  0  0  0  0  0  0
    8.0305   -2.6800   -0.6279 H   0  0  0  0  0  0  0  0  0  0  0  0
    1.6970    1.1726    0.4578 H   0  0  0  0  0  0  0  0  0  0  0  0
    0.2795   -0.9070   -0.1177 H   0  0  0  0  0  0  0  0  0  0  0  0
    3.9612    1.9578    0.7011 H   0  0  0  0  0  0  0  0  0  0  0  0
    7.6404   -1.1687   -1.4688 H   0  0  0  0  0  0  0  0  0  0  0  0
    6.4808   -2.5170   -1.4759 H   0  0  0  0  0  0  0  0  0  0  0  0
  1  2  1  0
  1  4  1  0
  2  3  1  0
  4  5  1  0
  5  6  1  0
  6  7  1  0
  7  8  1  0
  1  9  1  0
  1 22  1  0
  2 10  1  0
  2 11  1  0
  3 12  1  0
  3 13  1  0
  3 23  1  0
  4 14  1  0
  4 24  1  0
  5 15  1  0
  5 16  1  0
  6 17  1  0
  6 18  1  0
  7 19  1  0
  7 20  1  0
  8 21  1  0
  8 25  1  0
  8 26  1  0
M  END
