none
     RDKit          3D

 22 21  0  0  0  0  0  0  0  0999 V2000
    1.2335    1.2686    0.2995 C   0  0  0  0  0  0  0  0  0  0  0  0
    2.4877    0.4124    0.5567 C   0  0  0  0  0  0  0  0  0  0  0  0
    0.2082    0.1873   -0.0993 C   0  0  0  0  0  0  0  0  0  0  0  0
    3.6388    1.0843    1.2733 C   0  0  0  0  0  0  0  0  0  0  0  0
   -1.1547    0.7425   -0.3623 C   0  0  0  0  0  0  0  0  0  0  0  0
   -2.2974    0.1551    0.0277 C   0  0  0  0  0  0  0  0  0  0  0  0
   -3.6028    0.7060   -0.2522 C   0  0  0  0  0  0  0  0  0  0  0  0
   -4.7436    0.1227    0.1349 C   0  0  0  0  0  0  0  0  0  0  0  0
    2.8518    0.0266   -0.4053 H   0  0  0  0  0  0  0  0  0  0  0  0
    0.5550   -0.3176   -1.0128 H   0  0  0  0  0  0  0  0  0  0  0  0
    3.3339    1.4253    2.2666 H   0  0  0  0  0  0  0  0  0  0  0  0
   -2.2606   -0.7792    0.5828 H   0  0  0  0  0  0  0  0  0  0  0  0
   -3.6495    1.6436   -0.8028 H   0  0  0  0  0  0  0  0  0  0  0  0
    1.3999    2.0033   -0.5083 H   0  0  0  0  0  0  0  0  0  0  0  0
    0.9163    1.8062    1.2055 H   0  0  0  0  0  0  0  0  0  0  0  0
    2.2218   -0.4682    1.1601 H   0  0  0  0  0  0  0  0  0  0  0  0
    0.1434   -0.5817    0.6893 H   0  0  0  0  0  0  0  0  0  0  0  0
    4.4737    0.3803    1.3970 H   0  0  0  0  0  0  0  0  0  0  0  0
    3.9998    1.9444    0.7069 H   0  0  0  0  0  0  0  0  0  0  0  0
   -1.1917    1.6645   -0.9359 H   0  0  0  0  0  0  0  0  0  0  0  0
   -5.7022    0.5776   -0.0987 H   0  0  0  0  0  0  0  0  0  0  0  0
   -4.7579   -0.8124    0.6868 H   0  0  0  0  0  0  0  0  0  0  0  0
  1  2  1  0
  1  3  1  0
  2  4  1  0
  3  5  1  0
  5  6  2  0
  6  7  1  0
  7  8  2  0
  1 14  1  0
  1 15  1  0
  2  9  1  0
  2 16  1  0
  3 10  1  0
  3 17  1  0
  4 11  1  0
  4 18  1  0
  4 19  1  0
  5 20  1  0
  6 12  1  0
  7 13  1  0
  8 21  1  0
  8 22  1  0
M  END
