none
     RDKit          3D

 19 18  0  0  0  0  0  0  0  0999 V2000
    0.2146    0.1726   -0.0884 C   0  0  0  0  0  0  0  0  0  0  0  0
   -1.1516    0.7452   -0.3653 C   0  0  0  0  0  0  0  0  0  0  0  0
    0.1724    2.3435   -1.8196 C   0  0  0  0  0  0  0  0  0  0  0  0
   -1.1594    2.0466   -1.1325 C   0  0  0  0  0  0  0  0  0  0  0  0
   -2.2979    0.1538    0.0255 C   0  0  0  0  0  0  0  0  0  0  0  0
   -3.6067    0.7049   -0.2487 C   0  0  0  0  0  0  0  0  0  0  0  0
   -4.7440    0.1211    0.1352 C   0  0  0  0  0  0  0  0  0  0  0  0
    0.7269   -0.1137   -1.0162 H   0  0  0  0  0  0  0  0  0  0  0  0
    0.4547    1.5491   -2.5213 H   0  0  0  0  0  0  0  0  0  0  0  0
    0.0837    3.2653   -2.3964 H   0  0  0  0  0  0  0  0  0  0  0  0
   -1.3933    2.8719   -0.4471 H   0  0  0  0  0  0  0  0  0  0  0  0
   -1.9220    2.0303   -1.9226 H   0  0  0  0  0  0  0  0  0  0  0  0
   -2.2604   -0.7848    0.5727 H   0  0  0  0  0  0  0  0  0  0  0  0
   -3.6885    1.6525   -0.7767 H   0  0  0  0  0  0  0  0  0  0  0  0
    0.8336    0.8877    0.4675 H   0  0  0  0  0  0  0  0  0  0  0  0
    0.1486   -0.7265    0.5220 H   0  0  0  0  0  0  0  0  0  0  0  0
    0.9867    2.4975   -1.1012 H   0  0  0  0  0  0  0  0  0  0  0  0
   -5.7029    0.5820   -0.0871 H   0  0  0  0  0  0  0  0  0  0  0  0
   -4.7574   -0.8194    0.6757 H   0  0  0  0  0  0  0  0  0  0  0  0
  1  2  1  0
  2  4  1  0
  2  5  2  0
  3  4  1  0
  5  6  1  0
  6  7  2  0
  1  8  1  0
  1 15  1  0
  1 16  1  0
  3  9  1  0
  3 10  1  0
  3 17  1  0
  4 11  1  0
  4 12  1  0
  5 13  1  0
  6 14  1  0
  7 18  1  0
  7 19  1  0
M  END
