none
     RDKit          3D

 23 22  0  0  0  0  0  0  0  0999 V2000
    1.2372    1.3001    0.3052 C   0  0  0  0  0  0  0  0  0  0  0  0
    2.4634    0.4000    0.5514 C   0  0  0  0  0  0  0  0  0  0  0  0
    1.9384   -0.8217    1.3127 C   0  0  0  0  0  0  0  0  0  0  0  0
    3.6462    1.0754    1.2725 C   0  0  0  0  0  0  0  0  0  0  0  0
    0.8092    2.0642    1.5640 C   0  0  0  0  0  0  0  0  0  0  0  0
    4.8569    0.1421    1.4563 C   0  0  0  0  0  0  0  0  0  0  0  0
    5.4350   -0.4563    0.1729 C   0  0  0  0  0  0  0  0  0  0  0  0
    2.8119    0.0636   -0.4327 H   0  0  0  0  0  0  0  0  0  0  0  0
    2.6758   -1.6215    1.3293 H   0  0  0  0  0  0  0  0  0  0  0  0
    1.6824   -0.5811    2.3509 H   0  0  0  0  0  0  0  0  0  0  0  0
    3.3422    1.4226    2.2704 H   0  0  0  0  0  0  0  0  0  0  0  0
   -0.1017    2.6309    1.3614 H   0  0  0  0  0  0  0  0  0  0  0  0
    0.6037    1.3967    2.4097 H   0  0  0  0  0  0  0  0  0  0  0  0
    1.5765    2.7885    1.8684 H   0  0  0  0  0  0  0  0  0  0  0  0
    4.6030   -0.6710    2.1478 H   0  0  0  0  0  0  0  0  0  0  0  0
    5.6474    0.7179    1.9480 H   0  0  0  0  0  0  0  0  0  0  0  0
    5.6651    0.3277   -0.5551 H   0  0  0  0  0  0  0  0  0  0  0  0
    4.7451   -1.1702   -0.2885 H   0  0  0  0  0  0  0  0  0  0  0  0
    0.3854    0.7002   -0.0778 H   0  0  0  0  0  0  0  0  0  0  0  0
    1.4725    2.0244   -0.4791 H   0  0  0  0  0  0  0  0  0  0  0  0
    1.0409   -1.2342    0.8294 H   0  0  0  0  0  0  0  0  0  0  0  0
    3.9578    1.9638    0.7094 H   0  0  0  0  0  0  0  0  0  0  0  0
    6.3642   -0.9960    0.3964 H   0  0  0  0  0  0  0  0  0  0  0  0
  1  2  1  0
  1  5  1  0
  2  3  1  0
  2  4  1  0
  4  6  1  0
  6  7  1  0
  1 19  1  0
  1 20  1  0
  2  8  1  0
  3  9  1  0
  3 10  1  0
  3 21  1  0
  4 11  1  0
  4 22  1  0
  5 12  1  0
  5 13  1  0
  5 14  1  0
  6 15  1  0
  6 16  1  0
  7 17  1  0
  7 18  1  0
  7 23  1  0
M  END
