none
     RDKit          3D

 29 28  0  0  0  0  0  0  0  0999 V2000
    2.4732    0.4067    0.5581 C   0  0  0  0  0  0  0  0  0  0  0  0
    1.9320   -0.8133    1.3081 C   0  0  0  0  0  0  0  0  0  0  0  0
    3.6480    1.0738    1.2712 C   0  0  0  0  0  0  0  0  0  0  0  0
    4.8564    0.1399    1.4610 C   0  0  0  0  0  0  0  0  0  0  0  0
    5.4328   -0.4560    0.1703 C   0  0  0  0  0  0  0  0  0  0  0  0
    6.5904   -1.4345    0.4222 C   0  0  0  0  0  0  0  0  0  0  0  0
    7.2164   -1.9861   -0.8733 C   0  0  0  0  0  0  0  0  0  0  0  0
    7.7473   -0.8772   -1.7860 C   0  0  0  0  0  0  0  0  0  0  0  0
    6.2002   -2.8383   -1.6332 C   0  0  0  0  0  0  0  0  0  0  0  0
    2.7483    0.1244   -0.4671 H   0  0  0  0  0  0  0  0  0  0  0  0
    2.6464   -1.6447    1.2996 H   0  0  0  0  0  0  0  0  0  0  0  0
    1.7016   -0.5633    2.3510 H   0  0  0  0  0  0  0  0  0  0  0  0
    3.3180    1.4348    2.2588 H   0  0  0  0  0  0  0  0  0  0  0  0
    4.5838   -0.6711    2.1430 H   0  0  0  0  0  0  0  0  0  0  0  0
    5.6430    0.7085    1.9654 H   0  0  0  0  0  0  0  0  0  0  0  0
    5.7677    0.3715   -0.4618 H   0  0  0  0  0  0  0  0  0  0  0  0
    4.6442   -0.9830   -0.3700 H   0  0  0  0  0  0  0  0  0  0  0  0
    6.2330   -2.2722    1.0390 H   0  0  0  0  0  0  0  0  0  0  0  0
    7.3675   -0.9294    1.0038 H   0  0  0  0  0  0  0  0  0  0  0  0
    8.0627   -2.6294   -0.5882 H   0  0  0  0  0  0  0  0  0  0  0  0
    6.9383   -0.2862   -2.2324 H   0  0  0  0  0  0  0  0  0  0  0  0
    8.3234   -1.3082   -2.6106 H   0  0  0  0  0  0  0  0  0  0  0  0
    8.4066   -0.1988   -1.2360 H   0  0  0  0  0  0  0  0  0  0  0  0
    5.3853   -2.2357   -2.0521 H   0  0  0  0  0  0  0  0  0  0  0  0
    6.6836   -3.3522   -2.4667 H   0  0  0  0  0  0  0  0  0  0  0  0
    5.7617   -3.6007   -0.9807 H   0  0  0  0  0  0  0  0  0  0  0  0
    1.6672    1.1411    0.4640 H   0  0  0  0  0  0  0  0  0  0  0  0
    1.0099   -1.1662    0.8330 H   0  0  0  0  0  0  0  0  0  0  0  0
    3.9570    1.9597    0.7029 H   0  0  0  0  0  0  0  0  0  0  0  0
  1  2  1  0
  1  3  1  0
  3  4  1  0
  4  5  1  0
  5  6  1  0
  6  7  1  0
  7  8  1  0
  7  9  1  0
  1 10  1  0
  1 27  1  0
  2 11  1  0
  2 12  1  0
  2 28  1  0
  3 13  1  0
  3 29  1  0
  4 14  1  0
  4 15  1  0
  5 16  1  0
  5 17  1  0
  6 18  1  0
  6 19  1  0
  7 20  1  0
  8 21  1  0
  8 22  1  0
  8 23  1  0
  9 24  1  0
  9 25  1  0
  9 26  1  0
M  END
