none
     RDKit          3D

 19 18  0  0  0  0  0  0  0  0999 V2000
    0.2150    0.1807   -0.0952 C   0  0  0  0  0  0  0  0  0  0  0  0
   -1.1525    0.7397   -0.3613 C   0  0  0  0  0  0  0  0  0  0  0  0
   -2.2970    0.1544    0.0270 C   0  0  0  0  0  0  0  0  0  0  0  0
   -3.6008    0.7059   -0.2527 C   0  0  0  0  0  0  0  0  0  0  0  0
   -4.7479    0.1242    0.1329 C   0  0  0  0  0  0  0  0  0  0  0  0
   -6.0980    0.7043   -0.2095 C   0  0  0  0  0  0  0  0  0  0  0  0
   -7.0536   -0.3322   -0.8005 C   0  0  0  0  0  0  0  0  0  0  0  0
    0.7348    0.0014   -1.0425 H   0  0  0  0  0  0  0  0  0  0  0  0
   -2.2607   -0.7841    0.5744 H   0  0  0  0  0  0  0  0  0  0  0  0
   -3.6345    1.6320   -0.8240 H   0  0  0  0  0  0  0  0  0  0  0  0
   -5.9990    1.5396   -0.9160 H   0  0  0  0  0  0  0  0  0  0  0  0
   -6.5413    1.1100    0.7066 H   0  0  0  0  0  0  0  0  0  0  0  0
   -8.0228    0.1288   -1.0232 H   0  0  0  0  0  0  0  0  0  0  0  0
    0.8025    0.8958    0.4903 H   0  0  0  0  0  0  0  0  0  0  0  0
    0.1751   -0.7636    0.4577 H   0  0  0  0  0  0  0  0  0  0  0  0
   -1.1799    1.6787   -0.9103 H   0  0  0  0  0  0  0  0  0  0  0  0
   -4.7347   -0.7967    0.7153 H   0  0  0  0  0  0  0  0  0  0  0  0
   -6.6545   -0.7516   -1.7299 H   0  0  0  0  0  0  0  0  0  0  0  0
   -7.2245   -1.1561   -0.0984 H   0  0  0  0  0  0  0  0  0  0  0  0
  1  2  1  0
  2  3  2  0
  3  4  1  0
  4  5  2  0
  5  6  1  0
  6  7  1  0
  1  8  1  0
  1 14  1  0
  1 15  1  0
  2 16  1  0
  3  9  1  0
  4 10  1  0
  5 17  1  0
  6 11  1  0
  6 12  1  0
  7 13  1  0
  7 18  1  0
  7 19  1  0
M  END
