none
     RDKit          3D

 10  9  0  0  0  0  0  0  0  0999 V2000
   -3.5197    0.6939   -0.2474 C   0  0  0  0  0  0  0  0  0  0  0  0
   -4.7720    0.0445    0.1821 C   0  0  0  0  0  0  0  0  0  0  0  0
   -2.3183    0.1879    0.0073 C   0  0  0  0  0  0  0  0  0  0  0  0
   -4.8057   -1.0943    0.8541 C   0  0  0  0  0  0  0  0  0  0  0  0
   -3.6328    1.6364   -0.7988 H   0  0  0  0  0  0  0  0  0  0  0  0
   -2.1395   -0.7485    0.5528 H   0  0  0  0  0  0  0  0  0  0  0  0
   -5.6938    0.5760   -0.0976 H   0  0  0  0  0  0  0  0  0  0  0  0
   -1.4331    0.6962   -0.3251 H   0  0  0  0  0  0  0  0  0  0  0  0
   -5.7452   -1.5315    1.1466 H   0  0  0  0  0  0  0  0  0  0  0  0
   -3.9180   -1.6709    1.1615 H   0  0  0  0  0  0  0  0  0  0  0  0
  1  2  1  0
  1  3  2  3
  2  4  2  3
  1  5  1  0
  2  7  1  0
  3  6  1  0
  3  8  1  0
  4  9  1  0
  4 10  1  0
M  END
