none
     RDKit          3D

 23 22  0  0  0  0  0  0  0  0999 V2000
    1.2304    1.2880    0.3005 C   0  0  0  0  0  0  0  0  0  0  0  0
    2.4772    0.4082    0.5534 C   0  0  0  0  0  0  0  0  0  0  0  0
    3.6445    1.0809    1.2729 C   0  0  0  0  0  0  0  0  0  0  0  0
    0.8116    2.0633    1.5691 C   0  0  0  0  0  0  0  0  0  0  0  0
    4.8533    0.1389    1.4558 C   0  0  0  0  0  0  0  0  0  0  0  0
    4.0851    2.3324    0.5080 C   0  0  0  0  0  0  0  0  0  0  0  0
    5.4377   -0.4590    0.1714 C   0  0  0  0  0  0  0  0  0  0  0  0
    2.7954    0.0192   -0.4205 H   0  0  0  0  0  0  0  0  0  0  0  0
    3.3290    1.3854    2.2793 H   0  0  0  0  0  0  0  0  0  0  0  0
   -0.1416    2.5702    1.3895 H   0  0  0  0  0  0  0  0  0  0  0  0
    0.6776    1.3798    2.4140 H   0  0  0  0  0  0  0  0  0  0  0  0
    1.5393    2.8298    1.8505 H   0  0  0  0  0  0  0  0  0  0  0  0
    4.5569   -0.6885    2.1118 H   0  0  0  0  0  0  0  0  0  0  0  0
    5.6513    0.6769    1.9839 H   0  0  0  0  0  0  0  0  0  0  0  0
    3.3220    3.1151    0.5262 H   0  0  0  0  0  0  0  0  0  0  0  0
    4.9881    2.7619    0.9544 H   0  0  0  0  0  0  0  0  0  0  0  0
    4.3003    2.1113   -0.5428 H   0  0  0  0  0  0  0  0  0  0  0  0
    5.7650    0.3177   -0.5252 H   0  0  0  0  0  0  0  0  0  0  0  0
    4.7178   -1.1075   -0.3358 H   0  0  0  0  0  0  0  0  0  0  0  0
    0.4017    0.6465   -0.0262 H   0  0  0  0  0  0  0  0  0  0  0  0
    1.4243    1.9991   -0.5116 H   0  0  0  0  0  0  0  0  0  0  0  0
    2.1641   -0.4625    1.1430 H   0  0  0  0  0  0  0  0  0  0  0  0
    6.3115   -1.0721    0.4171 H   0  0  0  0  0  0  0  0  0  0  0  0
  1  2  1  0
  1  4  1  0
  2  3  1  0
  3  5  1  0
  3  6  1  0
  5  7  1  0
  1 20  1  0
  1 21  1  0
  2  8  1  0
  2 22  1  0
  3  9  1  0
  4 10  1  0
  4 11  1  0
  4 12  1  0
  5 13  1  0
  5 14  1  0
  6 15  1  0
  6 16  1  0
  6 17  1  0
  7 18  1  0
  7 19  1  0
  7 23  1  0
M  END
