none
     RDKit          3D

 13 12  0  0  0  0  0  0  0  0999 V2000
   -2.3038    0.1741    0.0338 C   0  0  0  0  0  0  0  0  0  0  0  0
   -3.5614    0.7128   -0.2432 C   0  0  0  0  0  0  0  0  0  0  0  0
   -4.7543    0.0862    0.1396 C   0  0  0  0  0  0  0  0  0  0  0  0
   -4.7808   -1.1274    0.8423 C   0  0  0  0  0  0  0  0  0  0  0  0
   -5.7388   -2.1776    0.3365 C   0  0  0  0  0  0  0  0  0  0  0  0
   -2.1374   -0.7553    0.5611 H   0  0  0  0  0  0  0  0  0  0  0  0
   -3.6303    1.6356   -0.8126 H   0  0  0  0  0  0  0  0  0  0  0  0
   -5.1702   -3.0241   -0.0634 H   0  0  0  0  0  0  0  0  0  0  0  0
   -6.3655   -2.5386    1.1596 H   0  0  0  0  0  0  0  0  0  0  0  0
   -1.4210    0.7042   -0.3290 H   0  0  0  0  0  0  0  0  0  0  0  0
   -5.6180    0.3549   -0.4767 H   0  0  0  0  0  0  0  0  0  0  0  0
   -3.9393   -1.4913    1.4325 H   0  0  0  0  0  0  0  0  0  0  0  0
   -6.3974   -1.8057   -0.4606 H   0  0  0  0  0  0  0  0  0  0  0  0
  1  2  2  0
  2  3  1  0
  3  4  2  0
  4  5  1  0
  1  6  1  0
  1 10  1  0
  2  7  1  0
  3 11  1  0
  4 12  1  0
  5  8  1  0
  5  9  1  0
  5 13  1  0
M  END
