none
     RDKit          3D

 25 24  0  0  0  0  0  0  0  0999 V2000
    1.2358    1.2623    0.2986 C   0  0  0  0  0  0  0  0  0  0  0  0
    2.4863    0.4222    0.5579 C   0  0  0  0  0  0  0  0  0  0  0  0
    0.2087    0.1871   -0.0962 C   0  0  0  0  0  0  0  0  0  0  0  0
   -1.1558    0.7500   -0.3662 C   0  0  0  0  0  0  0  0  0  0  0  0
   -1.1627    2.0464   -1.1345 C   0  0  0  0  0  0  0  0  0  0  0  0
   -2.2979    0.1538    0.0261 C   0  0  0  0  0  0  0  0  0  0  0  0
   -3.6065    0.7035   -0.2475 C   0  0  0  0  0  0  0  0  0  0  0  0
   -4.7494    0.1236    0.1323 C   0  0  0  0  0  0  0  0  0  0  0  0
   -6.0940    0.7035   -0.2082 C   0  0  0  0  0  0  0  0  0  0  0  0
    2.7909   -0.1325   -0.3441 H   0  0  0  0  0  0  0  0  0  0  0  0
    0.5552   -0.3254   -1.0087 H   0  0  0  0  0  0  0  0  0  0  0  0
   -1.0603    2.8962   -0.4490 H   0  0  0  0  0  0  0  0  0  0  0  0
   -2.0494    2.1983   -1.7549 H   0  0  0  0  0  0  0  0  0  0  0  0
   -2.2605   -0.7847    0.5733 H   0  0  0  0  0  0  0  0  0  0  0  0
   -3.6872    1.6451   -0.7856 H   0  0  0  0  0  0  0  0  0  0  0  0
   -6.0167    1.6294   -0.7918 H   0  0  0  0  0  0  0  0  0  0  0  0
   -6.6473    0.9248    0.7088 H   0  0  0  0  0  0  0  0  0  0  0  0
    1.4374    1.9949   -0.5059 H   0  0  0  0  0  0  0  0  0  0  0  0
    0.9292    1.8135    1.2047 H   0  0  0  0  0  0  0  0  0  0  0  0
    2.3195   -0.3042    1.3683 H   0  0  0  0  0  0  0  0  0  0  0  0
    3.3141    1.0590    0.8520 H   0  0  0  0  0  0  0  0  0  0  0  0
    0.1515   -0.5797    0.6935 H   0  0  0  0  0  0  0  0  0  0  0  0
   -0.3358    2.0701   -1.8475 H   0  0  0  0  0  0  0  0  0  0  0  0
   -4.7418   -0.8144    0.6858 H   0  0  0  0  0  0  0  0  0  0  0  0
   -6.6717   -0.0188   -0.7942 H   0  0  0  0  0  0  0  0  0  0  0  0
  1  2  1  0
  1  3  1  0
  3  4  1  0
  4  5  1  0
  4  6  2  0
  6  7  1  0
  7  8  2  0
  8  9  1  0
  1 18  1  0
  1 19  1  0
  2 10  1  0
  2 20  1  0
  2 21  1  0
  3 11  1  0
  3 22  1  0
  5 12  1  0
  5 13  1  0
  5 23  1  0
  6 14  1  0
  7 15  1  0
  8 24  1  0
  9 16  1  0
  9 17  1  0
  9 25  1  0
M  END
