none
     RDKit          3D

 17 16  0  0  0  0  0  0  0  0999 V2000
    2.4647    0.3860    0.5596 C   0  0  0  0  0  0  0  0  0  0  0  0
    1.8986   -0.8066    1.3143 C   0  0  0  0  0  0  0  0  0  0  0  0
    3.6620    1.0371    1.2562 C   0  0  0  0  0  0  0  0  0  0  0  0
    4.8784    0.1324    1.4681 C   0  0  0  0  0  0  0  0  0  0  0  0
    5.4531   -0.4283    0.1768 C   0  0  0  0  0  0  0  0  0  0  0  0
    2.7334    0.0819   -0.4579 H   0  0  0  0  0  0  0  0  0  0  0  0
    2.6098   -1.6373    1.3431 H   0  0  0  0  0  0  0  0  0  0  0  0
    1.6410   -0.5346    2.3428 H   0  0  0  0  0  0  0  0  0  0  0  0
    3.3404    1.4202    2.2327 H   0  0  0  0  0  0  0  0  0  0  0  0
    4.6261   -0.6921    2.1440 H   0  0  0  0  0  0  0  0  0  0  0  0
    5.6580    0.7167    1.9719 H   0  0  0  0  0  0  0  0  0  0  0  0
    5.6902    0.3740   -0.5289 H   0  0  0  0  0  0  0  0  0  0  0  0
    4.7562   -1.1200   -0.3055 H   0  0  0  0  0  0  0  0  0  0  0  0
    1.6747    1.1399    0.4576 H   0  0  0  0  0  0  0  0  0  0  0  0
    0.9896   -1.1658    0.8213 H   0  0  0  0  0  0  0  0  0  0  0  0
    3.9694    1.9117    0.6692 H   0  0  0  0  0  0  0  0  0  0  0  0
    6.3756   -0.9799    0.3848 H   0  0  0  0  0  0  0  0  0  0  0  0
  1  2  1  0
  1  3  1  0
  3  4  1  0
  4  5  1  0
  1  6  1  0
  1 14  1  0
  2  7  1  0
  2  8  1  0
  2 15  1  0
  3  9  1  0
  3 16  1  0
  4 10  1  0
  4 11  1  0
  5 12  1  0
  5 13  1  0
  5 17  1  0
M  END
