none
     RDKit          3D

 26 25  0  0  0  0  0  0  0  0999 V2000
    1.2347    1.2989    0.3048 C   0  0  0  0  0  0  0  0  0  0  0  0
    2.4621    0.3996    0.5513 C   0  0  0  0  0  0  0  0  0  0  0  0
    1.9383   -0.8219    1.3130 C   0  0  0  0  0  0  0  0  0  0  0  0
    3.6483    1.0813    1.2717 C   0  0  0  0  0  0  0  0  0  0  0  0
    0.8071    2.0635    1.5647 C   0  0  0  0  0  0  0  0  0  0  0  0
    4.8564    0.1387    1.4558 C   0  0  0  0  0  0  0  0  0  0  0  0
    4.0865    2.3339    0.5084 C   0  0  0  0  0  0  0  0  0  0  0  0
    5.4371   -0.4586    0.1732 C   0  0  0  0  0  0  0  0  0  0  0  0
    2.8041    0.0578   -0.4335 H   0  0  0  0  0  0  0  0  0  0  0  0
    2.6742   -1.6233    1.3272 H   0  0  0  0  0  0  0  0  0  0  0  0
    1.6859   -0.5811    2.3520 H   0  0  0  0  0  0  0  0  0  0  0  0
    3.3367    1.3878    2.2816 H   0  0  0  0  0  0  0  0  0  0  0  0
   -0.0953    2.6390    1.3540 H   0  0  0  0  0  0  0  0  0  0  0  0
    0.5813    1.3906    2.3995 H   0  0  0  0  0  0  0  0  0  0  0  0
    1.5704    2.7792    1.8977 H   0  0  0  0  0  0  0  0  0  0  0  0
    4.5877   -0.6794    2.1333 H   0  0  0  0  0  0  0  0  0  0  0  0
    5.6544    0.6918    1.9666 H   0  0  0  0  0  0  0  0  0  0  0  0
    3.3240    3.1170    0.5327 H   0  0  0  0  0  0  0  0  0  0  0  0
    4.9913    2.7596    0.9501 H   0  0  0  0  0  0  0  0  0  0  0  0
    4.2943    2.1130   -0.5442 H   0  0  0  0  0  0  0  0  0  0  0  0
    5.7547    0.3170   -0.5306 H   0  0  0  0  0  0  0  0  0  0  0  0
    4.7215   -1.1163   -0.3298 H   0  0  0  0  0  0  0  0  0  0  0  0
    0.3837    0.6946   -0.0675 H   0  0  0  0  0  0  0  0  0  0  0  0
    1.4529    2.0174   -0.4909 H   0  0  0  0  0  0  0  0  0  0  0  0
    1.0388   -1.2330    0.8317 H   0  0  0  0  0  0  0  0  0  0  0  0
    6.3182   -1.0627    0.4157 H   0  0  0  0  0  0  0  0  0  0  0  0
  1  2  1  0
  1  5  1  0
  2  3  1  0
  2  4  1  0
  4  6  1  0
  4  7  1  0
  6  8  1  0
  1 23  1  0
  1 24  1  0
  2  9  1  0
  3 10  1  0
  3 11  1  0
  3 25  1  0
  4 12  1  0
  5 13  1  0
  5 14  1  0
  5 15  1  0
  6 16  1  0
  6 17  1  0
  7 18  1  0
  7 19  1  0
  7 20  1  0
  8 21  1  0
  8 22  1  0
  8 26  1  0
M  END
