none
     RDKit          3D

 29 28  0  0  0  0  0  0  0  0999 V2000
    2.4778    0.4112    0.5630 C   0  0  0  0  0  0  0  0  0  0  0  0
    1.9165   -0.8024    1.2981 C   0  0  0  0  0  0  0  0  0  0  0  0
    0.4354   -0.9125    0.9734 C   0  0  0  0  0  0  0  0  0  0  0  0
    3.6568    1.0684    1.2658 C   0  0  0  0  0  0  0  0  0  0  0  0
    4.8608    0.1429    1.4628 C   0  0  0  0  0  0  0  0  0  0  0  0
    5.4301   -0.4554    0.1657 C   0  0  0  0  0  0  0  0  0  0  0  0
    6.5946   -1.4330    0.4236 C   0  0  0  0  0  0  0  0  0  0  0  0
    7.2059   -1.9883   -0.8674 C   0  0  0  0  0  0  0  0  0  0  0  0
    6.2066   -2.8382   -1.6347 C   0  0  0  0  0  0  0  0  0  0  0  0
    2.7437    0.1345   -0.4724 H   0  0  0  0  0  0  0  0  0  0  0  0
    2.4485   -1.7224    0.9856 H   0  0  0  0  0  0  0  0  0  0  0  0
    2.0437   -0.7128    2.3946 H   0  0  0  0  0  0  0  0  0  0  0  0
    0.0334   -1.8697    1.2937 H   0  0  0  0  0  0  0  0  0  0  0  0
   -0.1257   -0.1129    1.4839 H   0  0  0  0  0  0  0  0  0  0  0  0
    3.3153    1.4285    2.2588 H   0  0  0  0  0  0  0  0  0  0  0  0
    4.5824   -0.6686    2.1430 H   0  0  0  0  0  0  0  0  0  0  0  0
    5.6447    0.7117    1.9619 H   0  0  0  0  0  0  0  0  0  0  0  0
    5.7760    0.3575   -0.4789 H   0  0  0  0  0  0  0  0  0  0  0  0
    4.6409   -0.9833   -0.3655 H   0  0  0  0  0  0  0  0  0  0  0  0
    6.2421   -2.2701    1.0471 H   0  0  0  0  0  0  0  0  0  0  0  0
    7.3716   -0.9212    0.9902 H   0  0  0  0  0  0  0  0  0  0  0  0
    8.0837   -2.6091   -0.6135 H   0  0  0  0  0  0  0  0  0  0  0  0
    5.3875   -2.2293   -2.0434 H   0  0  0  0  0  0  0  0  0  0  0  0
    6.6876   -3.3487   -2.4655 H   0  0  0  0  0  0  0  0  0  0  0  0
    5.7622   -3.6061   -0.9877 H   0  0  0  0  0  0  0  0  0  0  0  0
    1.6914    1.1671    0.4675 H   0  0  0  0  0  0  0  0  0  0  0  0
    0.2608   -0.8036   -0.1096 H   0  0  0  0  0  0  0  0  0  0  0  0
    3.9566    1.9651    0.7093 H   0  0  0  0  0  0  0  0  0  0  0  0
    7.5793   -1.1642   -1.5012 H   0  0  0  0  0  0  0  0  0  0  0  0
  1  2  1  0
  1  4  1  0
  2  3  1  0
  4  5  1  0
  5  6  1  0
  6  7  1  0
  7  8  1  0
  8  9  1  0
  1 10  1  0
  1 26  1  0
  2 11  1  0
  2 12  1  0
  3 13  1  0
  3 14  1  0
  3 27  1  0
  4 15  1  0
  4 28  1  0
  5 16  1  0
  5 17  1  0
  6 18  1  0
  6 19  1  0
  7 20  1  0
  7 21  1  0
  8 22  1  0
  8 29  1  0
  9 23  1  0
  9 24  1  0
  9 25  1  0
M  END
