none
     RDKit          3D

 20 19  0  0  0  0  0  0  0  0999 V2000
   -6.6370   -0.6902   -2.1170 O   0  0  0  0  0  0  0  0  0  0  0  0
   -1.1556    0.7398   -0.3610 C   0  0  0  0  0  0  0  0  0  0  0  0
   -2.2971    0.1557    0.0264 C   0  0  0  0  0  0  0  0  0  0  0  0
   -3.6005    0.7061   -0.2534 C   0  0  0  0  0  0  0  0  0  0  0  0
   -4.7442    0.1251    0.1354 C   0  0  0  0  0  0  0  0  0  0  0  0
   -6.0969    0.7060   -0.2098 C   0  0  0  0  0  0  0  0  0  0  0  0
   -7.0551   -0.3347   -0.8002 C   0  0  0  0  0  0  0  0  0  0  0  0
   -7.1242   -1.5952    0.0617 C   0  0  0  0  0  0  0  0  0  0  0  0
   -5.7053   -0.9698   -2.0645 H   0  0  0  0  0  0  0  0  0  0  0  0
   -2.2475   -0.7787    0.5817 H   0  0  0  0  0  0  0  0  0  0  0  0
   -3.6332    1.6218   -0.8416 H   0  0  0  0  0  0  0  0  0  0  0  0
   -5.9874    1.5388   -0.9163 H   0  0  0  0  0  0  0  0  0  0  0  0
   -6.5318    1.1102    0.7117 H   0  0  0  0  0  0  0  0  0  0  0  0
   -8.0555    0.1059   -0.8848 H   0  0  0  0  0  0  0  0  0  0  0  0
   -7.9420   -2.2311   -0.2915 H   0  0  0  0  0  0  0  0  0  0  0  0
   -7.3115   -1.3571    1.1138 H   0  0  0  0  0  0  0  0  0  0  0  0
   -0.1974    0.2866   -0.1250 H   0  0  0  0  0  0  0  0  0  0  0  0
   -1.1419    1.6732   -0.9153 H   0  0  0  0  0  0  0  0  0  0  0  0
   -4.7056   -0.7670    0.7572 H   0  0  0  0  0  0  0  0  0  0  0  0
   -6.2206   -2.2095   -0.0234 H   0  0  0  0  0  0  0  0  0  0  0  0
  1  7  1  0
  2  3  2  0
  3  4  1  0
  4  5  2  0
  5  6  1  0
  6  7  1  0
  7  8  1  0
  1  9  1  0
  2 17  1  0
  2 18  1  0
  3 10  1  0
  4 11  1  0
  5 19  1  0
  6 12  1  0
  6 13  1  0
  7 14  1  0
  8 15  1  0
  8 16  1  0
  8 20  1  0
M  END
