none
     RDKit          3D

 17 16  0  0  0  0  0  0  0  0999 V2000
   -1.1553    0.7421   -0.3607 C   0  0  0  0  0  0  0  0  0  0  0  0
   -2.2913    0.1571    0.0188 C   0  0  0  0  0  0  0  0  0  0  0  0
   -3.6013    0.7070   -0.2507 C   0  0  0  0  0  0  0  0  0  0  0  0
   -4.7431    0.1194    0.1375 C   0  0  0  0  0  0  0  0  0  0  0  0
   -4.7862   -1.1356    0.8763 C   0  0  0  0  0  0  0  0  0  0  0  0
   -5.7279   -2.1730    0.3296 C   0  0  0  0  0  0  0  0  0  0  0  0
   -4.0603   -1.3510    1.9892 C   0  0  0  0  0  0  0  0  0  0  0  0
   -2.1946   -0.8238    0.4776 H   0  0  0  0  0  0  0  0  0  0  0  0
   -3.6513    1.6400   -0.8070 H   0  0  0  0  0  0  0  0  0  0  0  0
   -5.4498   -2.4427   -0.6952 H   0  0  0  0  0  0  0  0  0  0  0  0
   -5.7170   -3.0911    0.9275 H   0  0  0  0  0  0  0  0  0  0  0  0
   -4.1149   -2.2935    2.5207 H   0  0  0  0  0  0  0  0  0  0  0  0
   -3.4243   -0.5854    2.4274 H   0  0  0  0  0  0  0  0  0  0  0  0
   -0.1989    0.2623   -0.1717 H   0  0  0  0  0  0  0  0  0  0  0  0
   -1.1405    1.7005   -0.8671 H   0  0  0  0  0  0  0  0  0  0  0  0
   -5.6995    0.5676   -0.1311 H   0  0  0  0  0  0  0  0  0  0  0  0
   -6.7561   -1.7946    0.3233 H   0  0  0  0  0  0  0  0  0  0  0  0
  1  2  2  0
  2  3  1  0
  3  4  2  0
  4  5  1  0
  5  6  1  0
  5  7  2  0
  1 14  1  0
  1 15  1  0
  2  8  1  0
  3  9  1  0
  4 16  1  0
  6 10  1  0
  6 11  1  0
  6 17  1  0
  7 12  1  0
  7 13  1  0
M  END
