none
     RDKit          3D

 20 19  0  0  0  0  0  0  0  0999 V2000
   -1.1573    0.7461   -0.3646 C   0  0  0  0  0  0  0  0  0  0  0  0
   -1.1611    2.0442   -1.1290 C   0  0  0  0  0  0  0  0  0  0  0  0
   -2.2924    0.1565    0.0212 C   0  0  0  0  0  0  0  0  0  0  0  0
   -3.6027    0.7050   -0.2500 C   0  0  0  0  0  0  0  0  0  0  0  0
   -4.7483    0.1201    0.1362 C   0  0  0  0  0  0  0  0  0  0  0  0
   -6.0958    0.7057   -0.2107 C   0  0  0  0  0  0  0  0  0  0  0  0
   -4.7819   -1.1332    0.8779 C   0  0  0  0  0  0  0  0  0  0  0  0
   -4.0607   -1.3520    1.9883 C   0  0  0  0  0  0  0  0  0  0  0  0
   -1.6003    2.8547   -0.5353 H   0  0  0  0  0  0  0  0  0  0  0  0
   -1.6901    1.9456   -2.0851 H   0  0  0  0  0  0  0  0  0  0  0  0
   -2.1907   -0.8113    0.5019 H   0  0  0  0  0  0  0  0  0  0  0  0
   -3.6676    1.6377   -0.8052 H   0  0  0  0  0  0  0  0  0  0  0  0
   -6.0063    1.6528   -0.7547 H   0  0  0  0  0  0  0  0  0  0  0  0
   -6.6737    0.9025    0.6991 H   0  0  0  0  0  0  0  0  0  0  0  0
   -4.1202   -2.3037    2.5021 H   0  0  0  0  0  0  0  0  0  0  0  0
   -3.4304   -0.5876    2.4388 H   0  0  0  0  0  0  0  0  0  0  0  0
   -0.1982    0.2723   -0.1583 H   0  0  0  0  0  0  0  0  0  0  0  0
   -0.1313    2.3303   -1.3576 H   0  0  0  0  0  0  0  0  0  0  0  0
   -6.6651    0.0147   -0.8420 H   0  0  0  0  0  0  0  0  0  0  0  0
   -5.4396   -1.9109    0.4955 H   0  0  0  0  0  0  0  0  0  0  0  0
  1  2  1  0
  1  3  2  0
  3  4  1  0
  4  5  2  0
  5  6  1  0
  5  7  1  0
  7  8  2  0
  1 17  1  0
  2  9  1  0
  2 10  1  0
  2 18  1  0
  3 11  1  0
  4 12  1  0
  6 13  1  0
  6 14  1  0
  6 19  1  0
  7 20  1  0
  8 15  1  0
  8 16  1  0
M  END
