none
     RDKit          3D

 20 19  0  0  0  0  0  0  0  0999 V2000
    2.4797    0.4105    0.5552 C   0  0  0  0  0  0  0  0  0  0  0  0
    3.6458    1.0757    1.2716 C   0  0  0  0  0  0  0  0  0  0  0  0
    4.8536    0.1386    1.4585 C   0  0  0  0  0  0  0  0  0  0  0  0
    5.4364   -0.4583    0.1661 C   0  0  0  0  0  0  0  0  0  0  0  0
    6.5911   -1.4394    0.4215 C   0  0  0  0  0  0  0  0  0  0  0  0
    7.2176   -1.9831   -0.8690 C   0  0  0  0  0  0  0  0  0  0  0  0
    2.7236    0.1958   -0.4903 H   0  0  0  0  0  0  0  0  0  0  0  0
    3.3092    1.4173    2.2619 H   0  0  0  0  0  0  0  0  0  0  0  0
    4.5570   -0.6794    2.1235 H   0  0  0  0  0  0  0  0  0  0  0  0
    5.6418    0.6952    1.9799 H   0  0  0  0  0  0  0  0  0  0  0  0
    5.7861    0.3559   -0.4760 H   0  0  0  0  0  0  0  0  0  0  0  0
    4.6558   -0.9916   -0.3832 H   0  0  0  0  0  0  0  0  0  0  0  0
    6.2272   -2.2826    1.0211 H   0  0  0  0  0  0  0  0  0  0  0  0
    7.3709   -0.9406    1.0064 H   0  0  0  0  0  0  0  0  0  0  0  0
    8.0340   -2.6773   -0.6315 H   0  0  0  0  0  0  0  0  0  0  0  0
    1.6082    1.0717    0.5586 H   0  0  0  0  0  0  0  0  0  0  0  0
    2.1974   -0.5261    1.0466 H   0  0  0  0  0  0  0  0  0  0  0  0
    3.9514    1.9684    0.7143 H   0  0  0  0  0  0  0  0  0  0  0  0
    7.6287   -1.1698   -1.4770 H   0  0  0  0  0  0  0  0  0  0  0  0
    6.4760   -2.5216   -1.4685 H   0  0  0  0  0  0  0  0  0  0  0  0
  1  2  1  0
  2  3  1  0
  3  4  1  0
  4  5  1  0
  5  6  1  0
  1  7  1  0
  1 16  1  0
  1 17  1  0
  2  8  1  0
  2 18  1  0
  3  9  1  0
  3 10  1  0
  4 11  1  0
  4 12  1  0
  5 13  1  0
  5 14  1  0
  6 15  1  0
  6 19  1  0
  6 20  1  0
M  END
