none
     RDKit          3D

 26 25  0  0  0  0  0  0  0  0999 V2000
    1.2083    1.2511    0.2959 C   0  0  0  0  0  0  0  0  0  0  0  0
    2.5098    0.4209    0.5474 C   0  0  0  0  0  0  0  0  0  0  0  0
    0.1544    0.1697   -0.0507 C   0  0  0  0  0  0  0  0  0  0  0  0
    1.3628    2.2645   -0.8908 C   0  0  0  0  0  0  0  0  0  0  0  0
    3.6712    1.1193    1.2507 C   0  0  0  0  0  0  0  0  0  0  0  0
    0.7717    2.0217    1.5575 C   0  0  0  0  0  0  0  0  0  0  0  0
    0.1781    2.3657   -1.8436 C   0  0  0  0  0  0  0  0  0  0  0  0
    4.1623    2.3463    0.5300 C   0  0  0  0  0  0  0  0  0  0  0  0
    2.8607   -0.0006   -0.4035 H   0  0  0  0  0  0  0  0  0  0  0  0
    0.4551   -0.3627   -0.9666 H   0  0  0  0  0  0  0  0  0  0  0  0
    2.2278    1.9851   -1.5023 H   0  0  0  0  0  0  0  0  0  0  0  0
    1.5727    3.2796   -0.5052 H   0  0  0  0  0  0  0  0  0  0  0  0
    3.3940    1.3661    2.2873 H   0  0  0  0  0  0  0  0  0  0  0  0
   -0.1893    2.5138    1.4060 H   0  0  0  0  0  0  0  0  0  0  0  0
    0.6871    1.3517    2.4226 H   0  0  0  0  0  0  0  0  0  0  0  0
    1.5002    2.8066    1.8200 H   0  0  0  0  0  0  0  0  0  0  0  0
    0.0267    1.4279   -2.3982 H   0  0  0  0  0  0  0  0  0  0  0  0
    0.3476    3.1504   -2.5775 H   0  0  0  0  0  0  0  0  0  0  0  0
    3.4578    3.1783    0.6383 H   0  0  0  0  0  0  0  0  0  0  0  0
    5.1100    2.6868    0.9462 H   0  0  0  0  0  0  0  0  0  0  0  0
    4.3131    2.1460   -0.5311 H   0  0  0  0  0  0  0  0  0  0  0  0
    2.2516   -0.4481    1.1756 H   0  0  0  0  0  0  0  0  0  0  0  0
    0.0645   -0.5685    0.7380 H   0  0  0  0  0  0  0  0  0  0  0  0
   -0.8358    0.5891   -0.2091 H   0  0  0  0  0  0  0  0  0  0  0  0
    4.4982    0.3919    1.3258 H   0  0  0  0  0  0  0  0  0  0  0  0
   -0.7344    2.6127   -1.2998 H   0  0  0  0  0  0  0  0  0  0  0  0
  1  2  1  0
  1  3  1  0
  1  4  1  0
  1  6  1  0
  2  5  1  0
  4  7  1  0
  5  8  1  0
  2  9  1  0
  2 22  1  0
  3 10  1  0
  3 23  1  0
  3 24  1  0
  4 11  1  0
  4 12  1  0
  5 13  1  0
  5 25  1  0
  6 14  1  0
  6 15  1  0
  6 16  1  0
  7 17  1  0
  7 18  1  0
  7 26  1  0
  8 19  1  0
  8 20  1  0
  8 21  1  0
M  END
