none
     RDKit          3D

 20 19  0  0  0  0  0  0  0  0999 V2000
    1.2337    1.2865    0.2907 C   0  0  0  0  0  0  0  0  0  0  0  0
    2.4737    0.4030    0.5511 C   0  0  0  0  0  0  0  0  0  0  0  0
    1.3950    2.2808   -0.8745 C   0  0  0  0  0  0  0  0  0  0  0  0
    3.6471    1.0846    1.2743 C   0  0  0  0  0  0  0  0  0  0  0  0
    0.1813    2.3374   -1.8047 C   0  0  0  0  0  0  0  0  0  0  0  0
    4.8417    0.1462    1.4537 C   0  0  0  0  0  0  0  0  0  0  0  0
    2.8257   -0.0105   -0.3991 H   0  0  0  0  0  0  0  0  0  0  0  0
    2.2708    2.0214   -1.4764 H   0  0  0  0  0  0  0  0  0  0  0  0
    1.5792    3.2856   -0.4673 H   0  0  0  0  0  0  0  0  0  0  0  0
    3.3128    1.4280    2.2603 H   0  0  0  0  0  0  0  0  0  0  0  0
    0.0068    1.3635   -2.2843 H   0  0  0  0  0  0  0  0  0  0  0  0
    0.3422    3.0772   -2.6047 H   0  0  0  0  0  0  0  0  0  0  0  0
    4.5741   -0.7405    2.0416 H   0  0  0  0  0  0  0  0  0  0  0  0
    5.6578    0.6640    1.9802 H   0  0  0  0  0  0  0  0  0  0  0  0
    0.3974    0.6074    0.0703 H   0  0  0  0  0  0  0  0  0  0  0  0
    0.9539    1.8267    1.2089 H   0  0  0  0  0  0  0  0  0  0  0  0
    2.1577   -0.4467    1.1621 H   0  0  0  0  0  0  0  0  0  0  0  0
    3.9655    1.9624    0.7117 H   0  0  0  0  0  0  0  0  0  0  0  0
   -0.7257    2.6200   -1.2620 H   0  0  0  0  0  0  0  0  0  0  0  0
    5.2309   -0.1926    0.4847 H   0  0  0  0  0  0  0  0  0  0  0  0
  1  2  1  0
  1  3  1  0
  2  4  1  0
  3  5  1  0
  4  6  1  0
  1 15  1  0
  1 16  1  0
  2  7  1  0
  2 17  1  0
  3  8  1  0
  3  9  1  0
  4 10  1  0
  4 18  1  0
  5 11  1  0
  5 12  1  0
  5 19  1  0
  6 13  1  0
  6 14  1  0
  6 20  1  0
M  END
