none
     RDKit          3D

 26 25  0  0  0  0  0  0  0  0999 V2000
    1.2320    1.2865    0.2979 C   0  0  0  0  0  0  0  0  0  0  0  0
    2.4775    0.4086    0.5527 C   0  0  0  0  0  0  0  0  0  0  0  0
    3.6424    1.0794    1.2735 C   0  0  0  0  0  0  0  0  0  0  0  0
    4.8532    0.1395    1.4573 C   0  0  0  0  0  0  0  0  0  0  0  0
    5.4369   -0.4588    0.1696 C   0  0  0  0  0  0  0  0  0  0  0  0
    6.5893   -1.4385    0.4214 C   0  0  0  0  0  0  0  0  0  0  0  0
    7.2211   -1.9850   -0.8726 C   0  0  0  0  0  0  0  0  0  0  0  0
    7.7447   -0.8772   -1.7861 C   0  0  0  0  0  0  0  0  0  0  0  0
    2.8040    0.0514   -0.4291 H   0  0  0  0  0  0  0  0  0  0  0  0
    3.3121    1.4305    2.2588 H   0  0  0  0  0  0  0  0  0  0  0  0
    4.5558   -0.6792    2.1233 H   0  0  0  0  0  0  0  0  0  0  0  0
    5.6416    0.6948    1.9804 H   0  0  0  0  0  0  0  0  0  0  0  0
    5.7702    0.3726   -0.4597 H   0  0  0  0  0  0  0  0  0  0  0  0
    4.6627   -0.9960   -0.3866 H   0  0  0  0  0  0  0  0  0  0  0  0
    6.2279   -2.2824    1.0215 H   0  0  0  0  0  0  0  0  0  0  0  0
    7.3665   -0.9389    1.0122 H   0  0  0  0  0  0  0  0  0  0  0  0
    8.0504   -2.6503   -0.6039 H   0  0  0  0  0  0  0  0  0  0  0  0
    6.9276   -0.3024   -2.2324 H   0  0  0  0  0  0  0  0  0  0  0  0
    8.3199   -1.3152   -2.6079 H   0  0  0  0  0  0  0  0  0  0  0  0
    8.4009   -0.1921   -1.2401 H   0  0  0  0  0  0  0  0  0  0  0  0
    0.4617    0.7073   -0.2236 H   0  0  0  0  0  0  0  0  0  0  0  0
    1.4922    2.1525   -0.3187 H   0  0  0  0  0  0  0  0  0  0  0  0
    0.8155    1.6450    1.2441 H   0  0  0  0  0  0  0  0  0  0  0  0
    2.1633   -0.4738    1.1227 H   0  0  0  0  0  0  0  0  0  0  0  0
    3.9591    1.9632    0.7084 H   0  0  0  0  0  0  0  0  0  0  0  0
    6.4871   -2.5886   -1.4190 H   0  0  0  0  0  0  0  0  0  0  0  0
  1  2  1  0
  2  3  1  0
  3  4  1  0
  4  5  1  0
  5  6  1  0
  6  7  1  0
  7  8  1  0
  1 21  1  0
  1 22  1  0
  1 23  1  0
  2  9  1  0
  2 24  1  0
  3 10  1  0
  3 25  1  0
  4 11  1  0
  4 12  1  0
  5 13  1  0
  5 14  1  0
  6 15  1  0
  6 16  1  0
  7 17  1  0
  7 26  1  0
  8 18  1  0
  8 19  1  0
  8 20  1  0
M  END
