none
     RDKit          3D

 17 16  0  0  0  0  0  0  0  0999 V2000
    3.6545    1.0689    1.2670 C   0  0  0  0  0  0  0  0  0  0  0  0
    4.8531    0.1397    1.4644 C   0  0  0  0  0  0  0  0  0  0  0  0
    5.4307   -0.4542    0.1621 C   0  0  0  0  0  0  0  0  0  0  0  0
    6.5921   -1.4402    0.4209 C   0  0  0  0  0  0  0  0  0  0  0  0
    7.2132   -1.9799   -0.8649 C   0  0  0  0  0  0  0  0  0  0  0  0
    3.3035    1.4507    2.2452 H   0  0  0  0  0  0  0  0  0  0  0  0
    4.5502   -0.6765    2.1230 H   0  0  0  0  0  0  0  0  0  0  0  0
    5.6416    0.6955    1.9800 H   0  0  0  0  0  0  0  0  0  0  0  0
    5.7881    0.3569   -0.4740 H   0  0  0  0  0  0  0  0  0  0  0  0
    4.6405   -0.9754   -0.3795 H   0  0  0  0  0  0  0  0  0  0  0  0
    6.2266   -2.2826    1.0208 H   0  0  0  0  0  0  0  0  0  0  0  0
    7.3707   -0.9409    1.0068 H   0  0  0  0  0  0  0  0  0  0  0  0
    8.0332   -2.6782   -0.6315 H   0  0  0  0  0  0  0  0  0  0  0  0
    2.8147    0.5456    0.7969 H   0  0  0  0  0  0  0  0  0  0  0  0
    3.9131    1.9337    0.6480 H   0  0  0  0  0  0  0  0  0  0  0  0
    7.6296   -1.1699   -1.4764 H   0  0  0  0  0  0  0  0  0  0  0  0
    6.4756   -2.5206   -1.4690 H   0  0  0  0  0  0  0  0  0  0  0  0
  1  2  1  0
  2  3  1  0
  3  4  1  0
  4  5  1  0
  1  6  1  0
  1 14  1  0
  1 15  1  0
  2  7  1  0
  2  8  1  0
  3  9  1  0
  3 10  1  0
  4 11  1  0
  4 12  1  0
  5 13  1  0
  5 16  1  0
  5 17  1  0
M  END
