none
     RDKit          3D

 20 19  0  0  0  0  0  0  0  0999 V2000
    1.2318    1.2654    0.2972 C   0  0  0  0  0  0  0  0  0  0  0  0
    2.4856    0.4100    0.5558 C   0  0  0  0  0  0  0  0  0  0  0  0
    0.2093    0.1918   -0.0975 C   0  0  0  0  0  0  0  0  0  0  0  0
    3.6455    1.0869    1.2741 C   0  0  0  0  0  0  0  0  0  0  0  0
    4.8488    0.1410    1.4551 C   0  0  0  0  0  0  0  0  0  0  0  0
    4.0858    2.3322    0.5092 C   0  0  0  0  0  0  0  0  0  0  0  0
    2.8374    0.0149   -0.4076 H   0  0  0  0  0  0  0  0  0  0  0  0
    0.5524   -0.3893   -0.9675 H   0  0  0  0  0  0  0  0  0  0  0  0
    3.3072    1.3914    2.2722 H   0  0  0  0  0  0  0  0  0  0  0  0
    4.5638   -0.7501    2.0233 H   0  0  0  0  0  0  0  0  0  0  0  0
    5.6566    0.6439    2.0027 H   0  0  0  0  0  0  0  0  0  0  0  0
    3.2890    3.0827    0.4756 H   0  0  0  0  0  0  0  0  0  0  0  0
    4.9478    2.7983    0.9952 H   0  0  0  0  0  0  0  0  0  0  0  0
    4.3700    2.0887   -0.5212 H   0  0  0  0  0  0  0  0  0  0  0  0
    1.3817    1.9900   -0.5229 H   0  0  0  0  0  0  0  0  0  0  0  0
    0.9041    1.8073    1.1986 H   0  0  0  0  0  0  0  0  0  0  0  0
    2.2065   -0.4673    1.1576 H   0  0  0  0  0  0  0  0  0  0  0  0
    0.0233   -0.5088    0.7321 H   0  0  0  0  0  0  0  0  0  0  0  0
   -0.7381    0.6518   -0.3567 H   0  0  0  0  0  0  0  0  0  0  0  0
    5.2474   -0.1847    0.4875 H   0  0  0  0  0  0  0  0  0  0  0  0
  1  2  1  0
  1  3  1  0
  2  4  1  0
  4  5  1  0
  4  6  1  0
  1 15  1  0
  1 16  1  0
  2  7  1  0
  2 17  1  0
  3  8  1  0
  3 18  1  0
  3 19  1  0
  4  9  1  0
  5 10  1  0
  5 11  1  0
  5 20  1  0
  6 12  1  0
  6 13  1  0
  6 14  1  0
M  END
