none
     RDKit          3D

 15 15  0  0  0  0  0  0  0  0999 V2000
    1.2346    1.2495    0.2833 C   0  0  0  0  0  0  0  0  0  0  0  0
    2.4722    0.4149    0.5685 C   0  0  0  0  0  0  0  0  0  0  0  0
    0.2123    0.1884   -0.0870 C   0  0  0  0  0  0  0  0  0  0  0  0
    1.9329   -0.8122    1.3034 C   0  0  0  0  0  0  0  0  0  0  0  0
    0.4421   -0.8918    0.9614 C   0  0  0  0  0  0  0  0  0  0  0  0
    2.9468    0.1081   -0.3712 H   0  0  0  0  0  0  0  0  0  0  0  0
    0.4145   -0.2056   -1.0901 H   0  0  0  0  0  0  0  0  0  0  0  0
    2.4664   -1.7172    0.9949 H   0  0  0  0  0  0  0  0  0  0  0  0
    2.0639   -0.7062    2.3862 H   0  0  0  0  0  0  0  0  0  0  0  0
    0.1561   -1.8825    0.5949 H   0  0  0  0  0  0  0  0  0  0  0  0
   -0.1543   -0.6838    1.8575 H   0  0  0  0  0  0  0  0  0  0  0  0
    1.3972    1.9700   -0.5231 H   0  0  0  0  0  0  0  0  0  0  0  0
    0.9201    1.7952    1.1805 H   0  0  0  0  0  0  0  0  0  0  0  0
    3.2148    0.9583    1.1598 H   0  0  0  0  0  0  0  0  0  0  0  0
   -0.8121    0.5710   -0.0692 H   0  0  0  0  0  0  0  0  0  0  0  0
  1  2  1  0
  1  3  1  0
  2  4  1  0
  3  5  1  0
  4  5  1  0
  1 12  1  0
  1 13  1  0
  2  6  1  0
  2 14  1  0
  3  7  1  0
  3 15  1  0
  4  8  1  0
  4  9  1  0
  5 10  1  0
  5 11  1  0
M  END
