none
     RDKit          3D

 16 15  0  0  0  0  0  0  0  0999 V2000
   -3.5520    0.7208   -0.2487 C   0  0  0  0  0  0  0  0  0  0  0  0
   -4.6929    0.1482    0.1477 C   0  0  0  0  0  0  0  0  0  0  0  0
   -4.7879   -1.1116    0.8607 C   0  0  0  0  0  0  0  0  0  0  0  0
   -5.7492   -2.1501    0.3237 C   0  0  0  0  0  0  0  0  0  0  0  0
   -7.1660   -1.6442    0.0713 C   0  0  0  0  0  0  0  0  0  0  0  0
   -4.0694   -1.3348    1.9765 C   0  0  0  0  0  0  0  0  0  0  0  0
   -3.5709    1.6635   -0.7909 H   0  0  0  0  0  0  0  0  0  0  0  0
   -5.3449   -2.5652   -0.6076 H   0  0  0  0  0  0  0  0  0  0  0  0
   -5.8194   -2.9935    1.0258 H   0  0  0  0  0  0  0  0  0  0  0  0
   -7.8350   -2.4816   -0.1412 H   0  0  0  0  0  0  0  0  0  0  0  0
   -7.5575   -1.0984    0.9372 H   0  0  0  0  0  0  0  0  0  0  0  0
   -4.1364   -2.2765    2.5168 H   0  0  0  0  0  0  0  0  0  0  0  0
   -3.3897   -0.5912    2.3793 H   0  0  0  0  0  0  0  0  0  0  0  0
   -2.5837    0.2688   -0.0568 H   0  0  0  0  0  0  0  0  0  0  0  0
   -5.6340    0.6429   -0.0918 H   0  0  0  0  0  0  0  0  0  0  0  0
   -7.1943   -0.9739   -0.7961 H   0  0  0  0  0  0  0  0  0  0  0  0
  1  2  2  3
  2  3  1  0
  3  4  1  0
  3  6  2  3
  4  5  1  0
  1  7  1  0
  1 14  1  0
  2 15  1  0
  4  8  1  0
  4  9  1  0
  5 10  1  0
  5 11  1  0
  5 16  1  0
  6 12  1  0
  6 13  1  0
M  END
