none
     RDKit          3D

 17 16  0  0  0  0  0  0  0  0999 V2000
    2.4772    0.4042    0.5555 C   0  0  0  0  0  0  0  0  0  0  0  0
    1.9314   -0.8141    1.3094 C   0  0  0  0  0  0  0  0  0  0  0  0
    3.6471    1.0797    1.2761 C   0  0  0  0  0  0  0  0  0  0  0  0
    4.8514    0.1420    1.4556 C   0  0  0  0  0  0  0  0  0  0  0  0
    4.0838    2.3312    0.5082 C   0  0  0  0  0  0  0  0  0  0  0  0
    2.7802    0.0949   -0.4526 H   0  0  0  0  0  0  0  0  0  0  0  0
    2.6579   -1.6334    1.3299 H   0  0  0  0  0  0  0  0  0  0  0  0
    1.6676   -0.5542    2.3404 H   0  0  0  0  0  0  0  0  0  0  0  0
    3.3097    1.3960    2.2716 H   0  0  0  0  0  0  0  0  0  0  0  0
    4.6096   -0.6975    2.1153 H   0  0  0  0  0  0  0  0  0  0  0  0
    5.6933    0.6776    1.9093 H   0  0  0  0  0  0  0  0  0  0  0  0
    3.2518    3.0352    0.4013 H   0  0  0  0  0  0  0  0  0  0  0  0
    4.8912    2.8484    1.0379 H   0  0  0  0  0  0  0  0  0  0  0  0
    4.4448    2.0768   -0.4946 H   0  0  0  0  0  0  0  0  0  0  0  0
    1.6609    1.1281    0.4327 H   0  0  0  0  0  0  0  0  0  0  0  0
    1.0296   -1.1863    0.8116 H   0  0  0  0  0  0  0  0  0  0  0  0
    5.1865   -0.2623    0.4938 H   0  0  0  0  0  0  0  0  0  0  0  0
  1  2  1  0
  1  3  1  0
  3  4  1  0
  3  5  1  0
  1  6  1  0
  1 15  1  0
  2  7  1  0
  2  8  1  0
  2 16  1  0
  3  9  1  0
  4 10  1  0
  4 11  1  0
  4 17  1  0
  5 12  1  0
  5 13  1  0
  5 14  1  0
M  END
