none
     RDKit          3D

 20 19  0  0  0  0  0  0  0  0999 V2000
   -6.6375   -0.6905   -2.1167 O   0  0  0  0  0  0  0  0  0  0  0  0
   -1.1594    0.7474   -0.3641 C   0  0  0  0  0  0  0  0  0  0  0  0
   -1.1584    2.0429   -1.1295 C   0  0  0  0  0  0  0  0  0  0  0  0
   -2.2971    0.1541    0.0268 C   0  0  0  0  0  0  0  0  0  0  0  0
   -3.6043    0.7031   -0.2519 C   0  0  0  0  0  0  0  0  0  0  0  0
   -4.7468    0.1231    0.1341 C   0  0  0  0  0  0  0  0  0  0  0  0
   -6.0986    0.7056   -0.2077 C   0  0  0  0  0  0  0  0  0  0  0  0
   -7.0537   -0.3328   -0.8024 C   0  0  0  0  0  0  0  0  0  0  0  0
   -5.7046   -0.9660   -2.0601 H   0  0  0  0  0  0  0  0  0  0  0  0
   -1.6064    2.8543   -0.5399 H   0  0  0  0  0  0  0  0  0  0  0  0
   -1.6830    1.9429   -2.0888 H   0  0  0  0  0  0  0  0  0  0  0  0
   -2.2468   -0.7800    0.5797 H   0  0  0  0  0  0  0  0  0  0  0  0
   -3.6646    1.6284   -0.8240 H   0  0  0  0  0  0  0  0  0  0  0  0
   -5.9902    1.5422   -0.9120 H   0  0  0  0  0  0  0  0  0  0  0  0
   -6.5367    1.0998    0.7136 H   0  0  0  0  0  0  0  0  0  0  0  0
   -8.0640    0.0855   -0.8777 H   0  0  0  0  0  0  0  0  0  0  0  0
   -0.1972    0.2885   -0.1276 H   0  0  0  0  0  0  0  0  0  0  0  0
   -0.1308    2.3336   -1.3516 H   0  0  0  0  0  0  0  0  0  0  0  0
   -4.7323   -0.7929    0.7226 H   0  0  0  0  0  0  0  0  0  0  0  0
   -7.1059   -1.2401   -0.1898 H   0  0  0  0  0  0  0  0  0  0  0  0
  1  8  1  0
  2  3  1  0
  2  4  2  0
  4  5  1  0
  5  6  2  0
  6  7  1  0
  7  8  1  0
  1  9  1  0
  2 17  1  0
  3 10  1  0
  3 11  1  0
  3 18  1  0
  4 12  1  0
  5 13  1  0
  6 19  1  0
  7 14  1  0
  7 15  1  0
  8 16  1  0
  8 20  1  0
M  END
