none
     RDKit          3D

 12 11  0  0  0  0  0  0  0  0999 V2000
   -1.1678    0.7654   -0.3604 C   0  0  0  0  0  0  0  0  0  0  0  0
    0.1680    2.3253   -1.8132 C   0  0  0  0  0  0  0  0  0  0  0  0
   -1.1594    2.0542   -1.1235 C   0  0  0  0  0  0  0  0  0  0  0  0
   -2.2920    0.1475    0.0167 C   0  0  0  0  0  0  0  0  0  0  0  0
    0.4170    1.5393   -2.5333 H   0  0  0  0  0  0  0  0  0  0  0  0
    0.1203    3.2760   -2.3506 H   0  0  0  0  0  0  0  0  0  0  0  0
   -1.3696    2.8763   -0.4316 H   0  0  0  0  0  0  0  0  0  0  0  0
   -1.9522    2.0422   -1.8825 H   0  0  0  0  0  0  0  0  0  0  0  0
   -2.2652   -0.7780    0.5832 H   0  0  0  0  0  0  0  0  0  0  0  0
   -0.2091    0.3198   -0.0894 H   0  0  0  0  0  0  0  0  0  0  0  0
    0.9839    2.3938   -1.0841 H   0  0  0  0  0  0  0  0  0  0  0  0
   -3.2706    0.5659   -0.2148 H   0  0  0  0  0  0  0  0  0  0  0  0
  1  3  1  0
  1  4  2  3
  2  3  1  0
  1 10  1  0
  2  5  1  0
  2  6  1  0
  2 11  1  0
  3  7  1  0
  3  8  1  0
  4  9  1  0
  4 12  1  0
M  END
