none
     RDKit          3D

 22 21  0  0  0  0  0  0  0  0999 V2000
    0.2157    0.1808   -0.0951 C   0  0  0  0  0  0  0  0  0  0  0  0
   -1.1530    0.7398   -0.3614 C   0  0  0  0  0  0  0  0  0  0  0  0
   -2.2971    0.1548    0.0271 C   0  0  0  0  0  0  0  0  0  0  0  0
   -3.6007    0.7061   -0.2539 C   0  0  0  0  0  0  0  0  0  0  0  0
   -4.7445    0.1266    0.1344 C   0  0  0  0  0  0  0  0  0  0  0  0
   -6.0966    0.7045   -0.2093 C   0  0  0  0  0  0  0  0  0  0  0  0
   -7.0543   -0.3348   -0.7994 C   0  0  0  0  0  0  0  0  0  0  0  0
   -7.1255   -1.5951    0.0612 C   0  0  0  0  0  0  0  0  0  0  0  0
    0.7296   -0.0117   -1.0428 H   0  0  0  0  0  0  0  0  0  0  0  0
   -2.2601   -0.7836    0.5755 H   0  0  0  0  0  0  0  0  0  0  0  0
   -3.6352    1.6214   -0.8408 H   0  0  0  0  0  0  0  0  0  0  0  0
   -6.0048    1.5457   -0.9096 H   0  0  0  0  0  0  0  0  0  0  0  0
   -6.5338    1.1068    0.7124 H   0  0  0  0  0  0  0  0  0  0  0  0
   -8.0556    0.1080   -0.8810 H   0  0  0  0  0  0  0  0  0  0  0  0
   -7.9570   -2.2204   -0.2716 H   0  0  0  0  0  0  0  0  0  0  0  0
   -7.2893   -1.3511    1.1165 H   0  0  0  0  0  0  0  0  0  0  0  0
    0.8072    0.9032    0.4774 H   0  0  0  0  0  0  0  0  0  0  0  0
    0.1760   -0.7555    0.4714 H   0  0  0  0  0  0  0  0  0  0  0  0
   -1.1804    1.6780   -0.9117 H   0  0  0  0  0  0  0  0  0  0  0  0
   -4.7065   -0.7696    0.7523 H   0  0  0  0  0  0  0  0  0  0  0  0
   -6.7395   -0.6077   -1.8143 H   0  0  0  0  0  0  0  0  0  0  0  0
   -6.2176   -2.2028   -0.0277 H   0  0  0  0  0  0  0  0  0  0  0  0
  1  2  1  0
  2  3  2  0
  3  4  1  0
  4  5  2  0
  5  6  1  0
  6  7  1  0
  7  8  1  0
  1  9  1  0
  1 17  1  0
  1 18  1  0
  2 19  1  0
  3 10  1  0
  4 11  1  0
  5 20  1  0
  6 12  1  0
  6 13  1  0
  7 14  1  0
  7 21  1  0
  8 15  1  0
  8 16  1  0
  8 22  1  0
M  END
