none
     RDKit          3D

  3  2  0  0  0  0  0  0  0  0999 V2000
   -6.6365   -0.6900   -2.1167 O   0  0  0  0  0  0  0  0  0  0  0  0
   -5.7098   -0.9624   -2.0399 H   0  0  0  0  0  0  0  0  0  0  0  0
   -6.8876   -0.4562   -1.2105 H   0  0  0  0  0  0  0  0  0  0  0  0
  1  2  1  0
  1  3  1  0
M  END
