none
     RDKit          3D

 26 25  0  0  0  0  0  0  0  0999 V2000
    2.4784    0.4095    0.5562 C   0  0  0  0  0  0  0  0  0  0  0  0
    1.9275   -0.8145    1.3087 C   0  0  0  0  0  0  0  0  0  0  0  0
    0.4347   -0.9047    0.9695 C   0  0  0  0  0  0  0  0  0  0  0  0
    3.6463    1.0787    1.2735 C   0  0  0  0  0  0  0  0  0  0  0  0
    4.8544    0.1387    1.4571 C   0  0  0  0  0  0  0  0  0  0  0  0
    4.0836    2.3321    0.5078 C   0  0  0  0  0  0  0  0  0  0  0  0
    5.4386   -0.4597    0.1694 C   0  0  0  0  0  0  0  0  0  0  0  0
    6.5870   -1.4372    0.4228 C   0  0  0  0  0  0  0  0  0  0  0  0
    2.7388    0.1220   -0.4707 H   0  0  0  0  0  0  0  0  0  0  0  0
    2.4468   -1.7315    0.9931 H   0  0  0  0  0  0  0  0  0  0  0  0
    2.0419   -0.7130    2.3972 H   0  0  0  0  0  0  0  0  0  0  0  0
    0.0242   -1.8585    1.3208 H   0  0  0  0  0  0  0  0  0  0  0  0
   -0.1260   -0.0893    1.4523 H   0  0  0  0  0  0  0  0  0  0  0  0
    3.3087    1.4025    2.2707 H   0  0  0  0  0  0  0  0  0  0  0  0
    4.5655   -0.6792    2.1238 H   0  0  0  0  0  0  0  0  0  0  0  0
    5.6474    0.6847    1.9822 H   0  0  0  0  0  0  0  0  0  0  0  0
    3.2818    3.0775    0.4994 H   0  0  0  0  0  0  0  0  0  0  0  0
    4.9646    2.7927    0.9736 H   0  0  0  0  0  0  0  0  0  0  0  0
    4.3262    2.1064   -0.5356 H   0  0  0  0  0  0  0  0  0  0  0  0
    5.8073    0.3387   -0.4818 H   0  0  0  0  0  0  0  0  0  0  0  0
    4.6665   -0.9985   -0.3830 H   0  0  0  0  0  0  0  0  0  0  0  0
    6.2467   -2.2768    1.0369 H   0  0  0  0  0  0  0  0  0  0  0  0
    7.4135   -0.9407    0.9401 H   0  0  0  0  0  0  0  0  0  0  0  0
    1.6803    1.1582    0.4586 H   0  0  0  0  0  0  0  0  0  0  0  0
    0.2649   -0.8422   -0.1142 H   0  0  0  0  0  0  0  0  0  0  0  0
    6.9629   -1.8370   -0.5250 H   0  0  0  0  0  0  0  0  0  0  0  0
  1  2  1  0
  1  4  1  0
  2  3  1  0
  4  5  1  0
  4  6  1  0
  5  7  1  0
  7  8  1  0
  1  9  1  0
  1 24  1  0
  2 10  1  0
  2 11  1  0
  3 12  1  0
  3 13  1  0
  3 25  1  0
  4 14  1  0
  5 15  1  0
  5 16  1  0
  6 17  1  0
  6 18  1  0
  6 19  1  0
  7 20  1  0
  7 21  1  0
  8 22  1  0
  8 23  1  0
  8 26  1  0
M  END
