none
     RDKit          3D

  8  7  0  0  0  0  0  0  0  0999 V2000
    1.2441    1.2759    0.2993 C   0  0  0  0  0  0  0  0  0  0  0  0
    2.4650    0.4203    0.5511 C   0  0  0  0  0  0  0  0  0  0  0  0
    2.8117   -0.0383   -0.3797 H   0  0  0  0  0  0  0  0  0  0  0  0
    0.4295    0.6719   -0.1114 H   0  0  0  0  0  0  0  0  0  0  0  0
    1.4742    2.0739   -0.4130 H   0  0  0  0  0  0  0  0  0  0  0  0
    0.8974    1.7345    1.2301 H   0  0  0  0  0  0  0  0  0  0  0  0
    2.2349   -0.3777    1.2634 H   0  0  0  0  0  0  0  0  0  0  0  0
    3.2796    1.0243    0.9618 H   0  0  0  0  0  0  0  0  0  0  0  0
  1  2  1  0
  1  4  1  0
  1  5  1  0
  1  6  1  0
  2  3  1  0
  2  7  1  0
  2  8  1  0
M  END
