none
     RDKit          3D

 29 28  0  0  0  0  0  0  0  0999 V2000
    2.4776    0.4081    0.5553 C   0  0  0  0  0  0  0  0  0  0  0  0
    1.9311   -0.8161    1.3105 C   0  0  0  0  0  0  0  0  0  0  0  0
    3.6446    1.0789    1.2738 C   0  0  0  0  0  0  0  0  0  0  0  0
    4.8548    0.1396    1.4573 C   0  0  0  0  0  0  0  0  0  0  0  0
    4.0834    2.3322    0.5081 C   0  0  0  0  0  0  0  0  0  0  0  0
    5.4374   -0.4593    0.1694 C   0  0  0  0  0  0  0  0  0  0  0  0
    6.5898   -1.4383    0.4220 C   0  0  0  0  0  0  0  0  0  0  0  0
    7.2188   -1.9868   -0.8720 C   0  0  0  0  0  0  0  0  0  0  0  0
    6.1991   -2.8355   -1.6319 C   0  0  0  0  0  0  0  0  0  0  0  0
    2.7428    0.1185   -0.4682 H   0  0  0  0  0  0  0  0  0  0  0  0
    2.6488   -1.6420    1.3085 H   0  0  0  0  0  0  0  0  0  0  0  0
    1.6903   -0.5613    2.3478 H   0  0  0  0  0  0  0  0  0  0  0  0
    3.3118    1.3955    2.2721 H   0  0  0  0  0  0  0  0  0  0  0  0
    4.5767   -0.6765    2.1345 H   0  0  0  0  0  0  0  0  0  0  0  0
    5.6501    0.6899    1.9773 H   0  0  0  0  0  0  0  0  0  0  0  0
    3.2728    3.0681    0.4869 H   0  0  0  0  0  0  0  0  0  0  0  0
    4.9460    2.8051    0.9895 H   0  0  0  0  0  0  0  0  0  0  0  0
    4.3486    2.1084   -0.5305 H   0  0  0  0  0  0  0  0  0  0  0  0
    5.7964    0.3432   -0.4835 H   0  0  0  0  0  0  0  0  0  0  0  0
    4.6437   -0.9842   -0.3683 H   0  0  0  0  0  0  0  0  0  0  0  0
    6.2382   -2.2713    1.0433 H   0  0  0  0  0  0  0  0  0  0  0  0
    7.3728   -0.9263    0.9932 H   0  0  0  0  0  0  0  0  0  0  0  0
    8.0849   -2.6076   -0.6132 H   0  0  0  0  0  0  0  0  0  0  0  0
    5.3921   -2.2245   -2.0473 H   0  0  0  0  0  0  0  0  0  0  0  0
    6.6896   -3.3381   -2.4711 H   0  0  0  0  0  0  0  0  0  0  0  0
    5.7613   -3.6046   -0.9870 H   0  0  0  0  0  0  0  0  0  0  0  0
    1.6585    1.1322    0.4609 H   0  0  0  0  0  0  0  0  0  0  0  0
    1.0157   -1.1716    0.8251 H   0  0  0  0  0  0  0  0  0  0  0  0
    7.5760   -1.1671   -1.5062 H   0  0  0  0  0  0  0  0  0  0  0  0
  1  2  1  0
  1  3  1  0
  3  4  1  0
  3  5  1  0
  4  6  1  0
  6  7  1  0
  7  8  1  0
  8  9  1  0
  1 10  1  0
  1 27  1  0
  2 11  1  0
  2 12  1  0
  2 28  1  0
  3 13  1  0
  4 14  1  0
  4 15  1  0
  5 16  1  0
  5 17  1  0
  5 18  1  0
  6 19  1  0
  6 20  1  0
  7 21  1  0
  7 22  1  0
  8 23  1  0
  8 29  1  0
  9 24  1  0
  9 25  1  0
  9 26  1  0
M  END
