none
     RDKit          3D

 26 25  0  0  0  0  0  0  0  0999 V2000
    1.2305    1.2785    0.2975 C   0  0  0  0  0  0  0  0  0  0  0  0
    2.4820    0.4107    0.5545 C   0  0  0  0  0  0  0  0  0  0  0  0
    0.2145    0.1850   -0.0962 C   0  0  0  0  0  0  0  0  0  0  0  0
    3.6429    1.0804    1.2731 C   0  0  0  0  0  0  0  0  0  0  0  0
    4.8534    0.1396    1.4573 C   0  0  0  0  0  0  0  0  0  0  0  0
    5.4376   -0.4593    0.1687 C   0  0  0  0  0  0  0  0  0  0  0  0
    6.5898   -1.4392    0.4215 C   0  0  0  0  0  0  0  0  0  0  0  0
    7.2201   -1.9851   -0.8715 C   0  0  0  0  0  0  0  0  0  0  0  0
    2.8192    0.0446   -0.4221 H   0  0  0  0  0  0  0  0  0  0  0  0
    0.5499   -0.3861   -0.9706 H   0  0  0  0  0  0  0  0  0  0  0  0
    3.3134    1.4314    2.2589 H   0  0  0  0  0  0  0  0  0  0  0  0
    4.5575   -0.6790    2.1245 H   0  0  0  0  0  0  0  0  0  0  0  0
    5.6420    0.6953    1.9792 H   0  0  0  0  0  0  0  0  0  0  0  0
    5.7844    0.3549   -0.4779 H   0  0  0  0  0  0  0  0  0  0  0  0
    4.6629   -1.0000   -0.3831 H   0  0  0  0  0  0  0  0  0  0  0  0
    6.2278   -2.2828    1.0212 H   0  0  0  0  0  0  0  0  0  0  0  0
    7.3713   -0.9405    1.0060 H   0  0  0  0  0  0  0  0  0  0  0  0
    8.0350   -2.6762   -0.6314 H   0  0  0  0  0  0  0  0  0  0  0  0
    1.3934    1.9959   -0.5153 H   0  0  0  0  0  0  0  0  0  0  0  0
    0.9057    1.8044    1.2013 H   0  0  0  0  0  0  0  0  0  0  0  0
    2.2115   -0.4763    1.1449 H   0  0  0  0  0  0  0  0  0  0  0  0
    0.0266   -0.5119    0.7302 H   0  0  0  0  0  0  0  0  0  0  0  0
   -0.7392    0.6523   -0.3525 H   0  0  0  0  0  0  0  0  0  0  0  0
    3.9592    1.9634    0.7076 H   0  0  0  0  0  0  0  0  0  0  0  0
    7.6275   -1.1698   -1.4778 H   0  0  0  0  0  0  0  0  0  0  0  0
    6.4764   -2.5230   -1.4678 H   0  0  0  0  0  0  0  0  0  0  0  0
  1  2  1  0
  1  3  1  0
  2  4  1  0
  4  5  1  0
  5  6  1  0
  6  7  1  0
  7  8  1  0
  1 19  1  0
  1 20  1  0
  2  9  1  0
  2 21  1  0
  3 10  1  0
  3 22  1  0
  3 23  1  0
  4 11  1  0
  4 24  1  0
  5 12  1  0
  5 13  1  0
  6 14  1  0
  6 15  1  0
  7 16  1  0
  7 17  1  0
  8 18  1  0
  8 25  1  0
  8 26  1  0
M  END
