none
     RDKit          3D

 20 19  0  0  0  0  0  0  0  0999 V2000
    1.2321    1.2864    0.2981 C   0  0  0  0  0  0  0  0  0  0  0  0
    2.4774    0.4085    0.5526 C   0  0  0  0  0  0  0  0  0  0  0  0
    3.6425    1.0795    1.2733 C   0  0  0  0  0  0  0  0  0  0  0  0
    4.8534    0.1397    1.4572 C   0  0  0  0  0  0  0  0  0  0  0  0
    5.4377   -0.4595    0.1697 C   0  0  0  0  0  0  0  0  0  0  0  0
    6.5879   -1.4378    0.4221 C   0  0  0  0  0  0  0  0  0  0  0  0
    2.8046    0.0510   -0.4288 H   0  0  0  0  0  0  0  0  0  0  0  0
    3.3120    1.4305    2.2587 H   0  0  0  0  0  0  0  0  0  0  0  0
    4.5568   -0.6789    2.1241 H   0  0  0  0  0  0  0  0  0  0  0  0
    5.6422    0.6950    1.9795 H   0  0  0  0  0  0  0  0  0  0  0  0
    5.7892    0.3495   -0.4807 H   0  0  0  0  0  0  0  0  0  0  0  0
    4.6655   -1.0054   -0.3806 H   0  0  0  0  0  0  0  0  0  0  0  0
    6.2538   -2.2815    1.0345 H   0  0  0  0  0  0  0  0  0  0  0  0
    7.4136   -0.9405    0.9400 H   0  0  0  0  0  0  0  0  0  0  0  0
    0.4620    0.7075   -0.2240 H   0  0  0  0  0  0  0  0  0  0  0  0
    1.4923    2.1528   -0.3181 H   0  0  0  0  0  0  0  0  0  0  0  0
    0.8152    1.6442    1.2441 H   0  0  0  0  0  0  0  0  0  0  0  0
    2.1632   -0.4738    1.1228 H   0  0  0  0  0  0  0  0  0  0  0  0
    3.9592    1.9632    0.7083 H   0  0  0  0  0  0  0  0  0  0  0  0
    6.9658   -1.8316   -0.5272 H   0  0  0  0  0  0  0  0  0  0  0  0
  1  2  1  0
  2  3  1  0
  3  4  1  0
  4  5  1  0
  5  6  1  0
  1 15  1  0
  1 16  1  0
  1 17  1  0
  2  7  1  0
  2 18  1  0
  3  8  1  0
  3 19  1  0
  4  9  1  0
  4 10  1  0
  5 11  1  0
  5 12  1  0
  6 13  1  0
  6 14  1  0
  6 20  1  0
M  END
