none
     RDKit          3D

 17 16  0  0  0  0  0  0  0  0999 V2000
    1.2545    1.3123    0.3100 C   0  0  0  0  0  0  0  0  0  0  0  0
    1.3801    2.2709   -0.8748 C   0  0  0  0  0  0  0  0  0  0  0  0
    0.8148    2.0452    1.5742 C   0  0  0  0  0  0  0  0  0  0  0  0
    0.1703    2.3252   -1.8064 C   0  0  0  0  0  0  0  0  0  0  0  0
   -1.1794    2.0629   -1.1509 C   0  0  0  0  0  0  0  0  0  0  0  0
    2.2585    1.9948   -1.4692 H   0  0  0  0  0  0  0  0  0  0  0  0
    1.5971    3.2877   -0.5011 H   0  0  0  0  0  0  0  0  0  0  0  0
   -0.1491    2.5482    1.4588 H   0  0  0  0  0  0  0  0  0  0  0  0
    0.7439    1.3630    2.4143 H   0  0  0  0  0  0  0  0  0  0  0  0
    1.5575    2.8188    1.8279 H   0  0  0  0  0  0  0  0  0  0  0  0
    0.3121    1.5901   -2.6084 H   0  0  0  0  0  0  0  0  0  0  0  0
    0.1411    3.3072   -2.3032 H   0  0  0  0  0  0  0  0  0  0  0  0
   -1.3688    2.7643   -0.3346 H   0  0  0  0  0  0  0  0  0  0  0  0
   -1.9776    2.1666   -1.8772 H   0  0  0  0  0  0  0  0  0  0  0  0
    2.2214    0.8514    0.5055 H   0  0  0  0  0  0  0  0  0  0  0  0
    0.5758    0.4667    0.0900 H   0  0  0  0  0  0  0  0  0  0  0  0
   -1.2469    1.0382   -0.7541 H   0  0  0  0  0  0  0  0  0  0  0  0
  1  2  1  0
  1  3  1  0
  2  4  1  0
  4  5  1  0
  1 15  1  0
  1 16  1  0
  2  6  1  0
  2  7  1  0
  3  8  1  0
  3  9  1  0
  3 10  1  0
  4 11  1  0
  4 12  1  0
  5 13  1  0
  5 14  1  0
  5 17  1  0
M  END
