none
     RDKit          3D

 27 26  0  0  0  0  0  0  0  0999 V2000
    1.2286    1.2809    0.2982 C   0  0  0  0  0  0  0  0  0  0  0  0
    2.4887    0.4127    0.5535 C   0  0  0  0  0  0  0  0  0  0  0  0
    0.2073    0.1859   -0.0961 C   0  0  0  0  0  0  0  0  0  0  0  0
    1.3996    2.2844   -0.8716 C   0  0  0  0  0  0  0  0  0  0  0  0
    3.6471    1.0813    1.2761 C   0  0  0  0  0  0  0  0  0  0  0  0
   -1.1592    0.7367   -0.3644 C   0  0  0  0  0  0  0  0  0  0  0  0
    0.8124    2.0621    1.5689 C   0  0  0  0  0  0  0  0  0  0  0  0
    4.8489    0.1420    1.4540 C   0  0  0  0  0  0  0  0  0  0  0  0
   -2.2971    0.1557    0.0279 C   0  0  0  0  0  0  0  0  0  0  0  0
    2.8493    0.0201   -0.4064 H   0  0  0  0  0  0  0  0  0  0  0  0
    0.5478   -0.3316   -1.0079 H   0  0  0  0  0  0  0  0  0  0  0  0
    1.6737    1.7635   -1.7989 H   0  0  0  0  0  0  0  0  0  0  0  0
    2.1949    3.0010   -0.6442 H   0  0  0  0  0  0  0  0  0  0  0  0
    3.3335    1.4121    2.2735 H   0  0  0  0  0  0  0  0  0  0  0  0
   -0.1419    2.5800    1.4299 H   0  0  0  0  0  0  0  0  0  0  0  0
    0.7049    1.3858    2.4238 H   0  0  0  0  0  0  0  0  0  0  0  0
    1.5515    2.8299    1.8286 H   0  0  0  0  0  0  0  0  0  0  0  0
    4.5766   -0.7396    2.0436 H   0  0  0  0  0  0  0  0  0  0  0  0
    5.6593    0.6634    1.9754 H   0  0  0  0  0  0  0  0  0  0  0  0
   -2.2984   -0.7579    0.6128 H   0  0  0  0  0  0  0  0  0  0  0  0
    2.2148   -0.4661    1.1559 H   0  0  0  0  0  0  0  0  0  0  0  0
    0.1379   -0.5797    0.6949 H   0  0  0  0  0  0  0  0  0  0  0  0
    0.4905    2.8756   -1.0625 H   0  0  0  0  0  0  0  0  0  0  0  0
    3.9677    1.9694    0.7249 H   0  0  0  0  0  0  0  0  0  0  0  0
   -1.2408    1.6283   -0.9815 H   0  0  0  0  0  0  0  0  0  0  0  0
    5.2305   -0.1933    0.4829 H   0  0  0  0  0  0  0  0  0  0  0  0
   -3.2609    0.5854   -0.2314 H   0  0  0  0  0  0  0  0  0  0  0  0
  1  2  1  0
  1  3  1  0
  1  4  1  0
  1  7  1  0
  2  5  1  0
  3  6  1  0
  5  8  1  0
  6  9  2  3
  2 10  1  0
  2 21  1  0
  3 11  1  0
  3 22  1  0
  4 12  1  0
  4 13  1  0
  4 23  1  0
  5 14  1  0
  5 24  1  0
  6 25  1  0
  7 15  1  0
  7 16  1  0
  7 17  1  0
  8 18  1  0
  8 19  1  0
  8 26  1  0
  9 20  1  0
  9 27  1  0
M  END
