none
     RDKit          3D

 25 24  0  0  0  0  0  0  0  0999 V2000
    1.3897    2.2929   -0.8816 C   0  0  0  0  0  0  0  0  0  0  0  0
   -1.1706    0.7489   -0.3675 C   0  0  0  0  0  0  0  0  0  0  0  0
    0.1844    2.3332   -1.8132 C   0  0  0  0  0  0  0  0  0  0  0  0
   -1.1406    2.0452   -1.1263 C   0  0  0  0  0  0  0  0  0  0  0  0
   -2.2990    0.1523    0.0267 C   0  0  0  0  0  0  0  0  0  0  0  0
   -3.6111    0.6989   -0.2471 C   0  0  0  0  0  0  0  0  0  0  0  0
   -4.7517    0.1231    0.1301 C   0  0  0  0  0  0  0  0  0  0  0  0
   -6.1005    0.7002   -0.2044 C   0  0  0  0  0  0  0  0  0  0  0  0
   -7.0496   -0.3288   -0.7997 C   0  0  0  0  0  0  0  0  0  0  0  0
    2.2798    2.6487   -1.4065 H   0  0  0  0  0  0  0  0  0  0  0  0
    1.2383    2.9273   -0.0013 H   0  0  0  0  0  0  0  0  0  0  0  0
    0.3348    1.6218   -2.6326 H   0  0  0  0  0  0  0  0  0  0  0  0
    0.1268    3.3319   -2.2761 H   0  0  0  0  0  0  0  0  0  0  0  0
   -1.3814    2.8645   -0.4331 H   0  0  0  0  0  0  0  0  0  0  0  0
   -1.9254    2.0468   -1.9169 H   0  0  0  0  0  0  0  0  0  0  0  0
   -2.2497   -0.7804    0.5792 H   0  0  0  0  0  0  0  0  0  0  0  0
   -3.6744    1.6392   -0.8013 H   0  0  0  0  0  0  0  0  0  0  0  0
   -6.0009    1.5413   -0.9134 H   0  0  0  0  0  0  0  0  0  0  0  0
   -6.5407    1.1057    0.7094 H   0  0  0  0  0  0  0  0  0  0  0  0
   -8.0228    0.1288   -1.0248 H   0  0  0  0  0  0  0  0  0  0  0  0
    1.6165    1.2702   -0.5383 H   0  0  0  0  0  0  0  0  0  0  0  0
   -0.2196    0.2608   -0.1006 H   0  0  0  0  0  0  0  0  0  0  0  0
   -4.7346   -0.8029    0.7065 H   0  0  0  0  0  0  0  0  0  0  0  0
   -6.6552   -0.7506   -1.7303 H   0  0  0  0  0  0  0  0  0  0  0  0
   -7.2247   -1.1549   -0.0979 H   0  0  0  0  0  0  0  0  0  0  0  0
  1  3  1  0
  2  4  1  0
  2  5  2  0
  3  4  1  0
  5  6  1  0
  6  7  2  0
  7  8  1  0
  8  9  1  0
  1 10  1  0
  1 11  1  0
  1 21  1  0
  2 22  1  0
  3 12  1  0
  3 13  1  0
  4 14  1  0
  4 15  1  0
  5 16  1  0
  6 17  1  0
  7 23  1  0
  8 18  1  0
  8 19  1  0
  9 20  1  0
  9 24  1  0
  9 25  1  0
M  END
