none
     RDKit          3D

 21 21  0  0  0  0  0  0  0  0999 V2000
   -6.6693   -0.6723   -2.1378 O   0  0  0  0  0  0  0  0  0  0  0  0
   -3.5924    0.7001   -0.2421 C   0  0  0  0  0  0  0  0  0  0  0  0
   -4.7427    0.1224    0.1393 C   0  0  0  0  0  0  0  0  0  0  0  0
   -6.0946    0.7087   -0.2113 C   0  0  0  0  0  0  0  0  0  0  0  0
   -4.7809   -1.1334    0.8789 C   0  0  0  0  0  0  0  0  0  0  0  0
   -7.0533   -0.3360   -0.8022 C   0  0  0  0  0  0  0  0  0  0  0  0
   -5.7267   -2.1775    0.3328 C   0  0  0  0  0  0  0  0  0  0  0  0
   -7.1171   -1.6007    0.0575 C   0  0  0  0  0  0  0  0  0  0  0  0
   -4.0548   -1.3391    1.9892 C   0  0  0  0  0  0  0  0  0  0  0  0
   -5.7126   -0.8546   -2.1338 H   0  0  0  0  0  0  0  0  0  0  0  0
   -3.5848    1.6292   -0.8033 H   0  0  0  0  0  0  0  0  0  0  0  0
   -5.9783    1.5341   -0.9241 H   0  0  0  0  0  0  0  0  0  0  0  0
   -6.5359    1.1258    0.7029 H   0  0  0  0  0  0  0  0  0  0  0  0
   -8.0569    0.0982   -0.8724 H   0  0  0  0  0  0  0  0  0  0  0  0
   -5.3050   -2.5870   -0.5941 H   0  0  0  0  0  0  0  0  0  0  0  0
   -5.8257   -3.0211    1.0269 H   0  0  0  0  0  0  0  0  0  0  0  0
   -7.7211   -2.3650   -0.4465 H   0  0  0  0  0  0  0  0  0  0  0  0
   -7.6079   -1.3669    1.0104 H   0  0  0  0  0  0  0  0  0  0  0  0
   -4.1056   -2.2776    2.5328 H   0  0  0  0  0  0  0  0  0  0  0  0
   -3.3945   -0.5765    2.3909 H   0  0  0  0  0  0  0  0  0  0  0  0
   -2.6262    0.2625   -0.0080 H   0  0  0  0  0  0  0  0  0  0  0  0
  1  6  1  0
  2  3  2  3
  3  4  1  0
  3  5  1  0
  4  6  1  0
  5  7  1  0
  5  9  2  3
  6  8  1  0
  7  8  1  0
  1 10  1  0
  2 11  1  0
  2 21  1  0
  4 12  1  0
  4 13  1  0
  6 14  1  0
  7 15  1  0
  7 16  1  0
  8 17  1  0
  8 18  1  0
  9 19  1  0
  9 20  1  0
M  END
