none
     RDKit          3D

 14 13  0  0  0  0  0  0  0  0999 V2000
    1.2863    1.1477    0.3254 C   0  0  0  0  0  0  0  0  0  0  0  0
    2.5585    0.3382    0.5702 C   0  0  0  0  0  0  0  0  0  0  0  0
    0.1632    0.2157   -0.1201 C   0  0  0  0  0  0  0  0  0  0  0  0
    3.6399    1.1385    1.2753 C   0  0  0  0  0  0  0  0  0  0  0  0
    2.9204   -0.0321   -0.3817 H   0  0  0  0  0  0  0  0  0  0  0  0
    0.4208   -0.3512   -1.0097 H   0  0  0  0  0  0  0  0  0  0  0  0
    3.2961    1.4915    2.2379 H   0  0  0  0  0  0  0  0  0  0  0  0
    1.4460    1.9062   -0.4468 H   0  0  0  0  0  0  0  0  0  0  0  0
    0.9679    1.6866    1.2049 H   0  0  0  0  0  0  0  0  0  0  0  0
    2.3014   -0.5346    1.1780 H   0  0  0  0  0  0  0  0  0  0  0  0
   -0.1100   -0.4891    0.6704 H   0  0  0  0  0  0  0  0  0  0  0  0
   -0.7616    0.7957   -0.3578 H   0  0  0  0  0  0  0  0  0  0  0  0
    4.5188    0.5105    1.4293 H   0  0  0  0  0  0  0  0  0  0  0  0
    3.9349    1.9937    0.6701 H   0  0  0  0  0  0  0  0  0  0  0  0
  1  2  1  0
  1  3  1  0
  2  4  1  0
  1  8  1  0
  1  9  1  0
  2  5  1  0
  2 10  1  0
  3  6  1  0
  3 11  1  0
  3 12  1  0
  4  7  1  0
  4 13  1  0
  4 14  1  0
M  END
