none
     RDKit          3D

 29 28  0  0  0  0  0  0  0  0999 V2000
    1.2359    1.2924    0.3082 C   0  0  0  0  0  0  0  0  0  0  0  0
    2.4782    0.4059    0.5535 C   0  0  0  0  0  0  0  0  0  0  0  0
    1.3806    2.2781   -0.8803 C   0  0  0  0  0  0  0  0  0  0  0  0
    3.6539    1.0915    1.2723 C   0  0  0  0  0  0  0  0  0  0  0  0
    0.8106    2.0539    1.5712 C   0  0  0  0  0  0  0  0  0  0  0  0
    0.1697    2.3287   -1.8085 C   0  0  0  0  0  0  0  0  0  0  0  0
   -1.1730    2.0588   -1.1465 C   0  0  0  0  0  0  0  0  0  0  0  0
    4.8436    0.1397    1.4521 C   0  0  0  0  0  0  0  0  0  0  0  0
    4.1042    2.3321    0.5175 C   0  0  0  0  0  0  0  0  0  0  0  0
    2.8206   -0.0134   -0.4004 H   0  0  0  0  0  0  0  0  0  0  0  0
    2.2556    2.0280   -1.4975 H   0  0  0  0  0  0  0  0  0  0  0  0
    1.5551    3.3013   -0.4998 H   0  0  0  0  0  0  0  0  0  0  0  0
    3.3303    1.3829    2.2810 H   0  0  0  0  0  0  0  0  0  0  0  0
   -0.1638    2.5379    1.4545 H   0  0  0  0  0  0  0  0  0  0  0  0
    0.7365    1.3774    2.4221 H   0  0  0  0  0  0  0  0  0  0  0  0
    1.5236    2.8512    1.8375 H   0  0  0  0  0  0  0  0  0  0  0  0
    0.3119    1.5948   -2.6117 H   0  0  0  0  0  0  0  0  0  0  0  0
    0.1386    3.3163   -2.3069 H   0  0  0  0  0  0  0  0  0  0  0  0
   -1.3542    2.7352   -0.3051 H   0  0  0  0  0  0  0  0  0  0  0  0
   -1.9698    2.2110   -1.8607 H   0  0  0  0  0  0  0  0  0  0  0  0
    4.5607   -0.7550    2.0141 H   0  0  0  0  0  0  0  0  0  0  0  0
    5.6542    0.6382    2.0112 H   0  0  0  0  0  0  0  0  0  0  0  0
    3.3787    3.1559    0.5963 H   0  0  0  0  0  0  0  0  0  0  0  0
    5.0243    2.7123    0.9312 H   0  0  0  0  0  0  0  0  0  0  0  0
    4.2831    2.1168   -0.5462 H   0  0  0  0  0  0  0  0  0  0  0  0
    0.4526    0.5532    0.0707 H   0  0  0  0  0  0  0  0  0  0  0  0
    2.1652   -0.4507    1.1616 H   0  0  0  0  0  0  0  0  0  0  0  0
   -1.2767    1.0136   -0.7973 H   0  0  0  0  0  0  0  0  0  0  0  0
    5.2522   -0.1772    0.4868 H   0  0  0  0  0  0  0  0  0  0  0  0
  1  2  1  0
  1  3  1  0
  1  5  1  0
  2  4  1  0
  3  6  1  0
  4  8  1  0
  4  9  1  0
  6  7  1  0
  1 26  1  0
  2 10  1  0
  2 27  1  0
  3 11  1  0
  3 12  1  0
  4 13  1  0
  5 14  1  0
  5 15  1  0
  5 16  1  0
  6 17  1  0
  6 18  1  0
  7 19  1  0
  7 20  1  0
  7 28  1  0
  8 21  1  0
  8 22  1  0
  8 29  1  0
  9 23  1  0
  9 24  1  0
  9 25  1  0
M  END
