none
     RDKit          3D

 23 22  0  0  0  0  0  0  0  0999 V2000
    1.2243    1.2870    0.3010 C   0  0  0  0  0  0  0  0  0  0  0  0
    0.2194    0.1846   -0.0940 C   0  0  0  0  0  0  0  0  0  0  0  0
   -1.1538    0.7428   -0.3637 C   0  0  0  0  0  0  0  0  0  0  0  0
    0.8155    2.0611    1.5666 C   0  0  0  0  0  0  0  0  0  0  0  0
   -2.2894    0.1575    0.0192 C   0  0  0  0  0  0  0  0  0  0  0  0
   -3.6021    0.7062   -0.2518 C   0  0  0  0  0  0  0  0  0  0  0  0
   -4.7431    0.1169    0.1388 C   0  0  0  0  0  0  0  0  0  0  0  0
   -4.7836   -1.1312    0.8775 C   0  0  0  0  0  0  0  0  0  0  0  0
   -4.0642   -1.3534    1.9898 C   0  0  0  0  0  0  0  0  0  0  0  0
    0.5798   -0.3081   -1.0070 H   0  0  0  0  0  0  0  0  0  0  0  0
   -0.1101    2.6281    1.4109 H   0  0  0  0  0  0  0  0  0  0  0  0
    0.6657    1.3774    2.4098 H   0  0  0  0  0  0  0  0  0  0  0  0
    1.6005    2.7749    1.8418 H   0  0  0  0  0  0  0  0  0  0  0  0
   -2.2009   -0.8095    0.5078 H   0  0  0  0  0  0  0  0  0  0  0  0
   -3.6525    1.6360   -0.8136 H   0  0  0  0  0  0  0  0  0  0  0  0
   -4.1288   -2.3007    2.5064 H   0  0  0  0  0  0  0  0  0  0  0  0
   -3.4240   -0.5914    2.4351 H   0  0  0  0  0  0  0  0  0  0  0  0
    2.2067    0.8243    0.4687 H   0  0  0  0  0  0  0  0  0  0  0  0
    1.3459    1.9969   -0.5301 H   0  0  0  0  0  0  0  0  0  0  0  0
    0.1858   -0.5779    0.6957 H   0  0  0  0  0  0  0  0  0  0  0  0
   -1.1917    1.6794   -0.9113 H   0  0  0  0  0  0  0  0  0  0  0  0
   -5.7028    0.5537   -0.1400 H   0  0  0  0  0  0  0  0  0  0  0  0
   -5.4557   -1.9001    0.5022 H   0  0  0  0  0  0  0  0  0  0  0  0
  1  2  1  0
  1  4  1  0
  2  3  1  0
  3  5  2  0
  5  6  1  0
  6  7  2  0
  7  8  1  0
  8  9  2  0
  1 18  1  0
  1 19  1  0
  2 10  1  0
  2 20  1  0
  3 21  1  0
  4 11  1  0
  4 12  1  0
  4 13  1  0
  5 14  1  0
  6 15  1  0
  7 22  1  0
  8 23  1  0
  9 16  1  0
  9 17  1  0
M  END
