none
     RDKit          3D

 14 13  0  0  0  0  0  0  0  0999 V2000
    1.2240    1.3203    0.2969 C   0  0  0  0  0  0  0  0  0  0  0  0
    0.1811    2.3371   -1.7947 C   0  0  0  0  0  0  0  0  0  0  0  0
    1.4004    2.2733   -0.8880 C   0  0  0  0  0  0  0  0  0  0  0  0
    0.8060    2.0525    1.5616 C   0  0  0  0  0  0  0  0  0  0  0  0
   -0.0259    1.3501   -2.2385 H   0  0  0  0  0  0  0  0  0  0  0  0
    0.3631    3.0351   -2.6213 H   0  0  0  0  0  0  0  0  0  0  0  0
    2.2547    1.9486   -1.4838 H   0  0  0  0  0  0  0  0  0  0  0  0
    1.6327    3.2874   -0.5272 H   0  0  0  0  0  0  0  0  0  0  0  0
   -0.1436    2.5801    1.4153 H   0  0  0  0  0  0  0  0  0  0  0  0
    0.6923    1.3586    2.3962 H   0  0  0  0  0  0  0  0  0  0  0  0
    1.5680    2.7940    1.8450 H   0  0  0  0  0  0  0  0  0  0  0  0
    2.1832    0.8152    0.4945 H   0  0  0  0  0  0  0  0  0  0  0  0
    0.4964    0.5261    0.0638 H   0  0  0  0  0  0  0  0  0  0  0  0
   -0.7114    2.6679   -1.2597 H   0  0  0  0  0  0  0  0  0  0  0  0
  1  3  1  0
  1  4  1  0
  2  3  1  0
  1 12  1  0
  1 13  1  0
  2  5  1  0
  2  6  1  0
  2 14  1  0
  3  7  1  0
  3  8  1  0
  4  9  1  0
  4 10  1  0
  4 11  1  0
M  END
