none
     RDKit          3D

 23 22  0  0  0  0  0  0  0  0999 V2000
    1.2336    1.2698    0.2997 C   0  0  0  0  0  0  0  0  0  0  0  0
    2.4977    0.4141    0.5562 C   0  0  0  0  0  0  0  0  0  0  0  0
    0.1957    0.2004   -0.0959 C   0  0  0  0  0  0  0  0  0  0  0  0
    1.3980    2.2763   -0.8675 C   0  0  0  0  0  0  0  0  0  0  0  0
    3.6548    1.0847    1.2760 C   0  0  0  0  0  0  0  0  0  0  0  0
    0.8068    2.0556    1.5619 C   0  0  0  0  0  0  0  0  0  0  0  0
    4.8433    0.1456    1.4525 C   0  0  0  0  0  0  0  0  0  0  0  0
    2.8483    0.0116   -0.4019 H   0  0  0  0  0  0  0  0  0  0  0  0
    0.5503   -0.3960   -0.9649 H   0  0  0  0  0  0  0  0  0  0  0  0
    1.6979    1.7679   -1.7905 H   0  0  0  0  0  0  0  0  0  0  0  0
    2.1568    3.0350   -0.6432 H   0  0  0  0  0  0  0  0  0  0  0  0
    3.3341    1.4158    2.2702 H   0  0  0  0  0  0  0  0  0  0  0  0
   -0.1679    2.5319    1.4281 H   0  0  0  0  0  0  0  0  0  0  0  0
    0.7374    1.3934    2.4333 H   0  0  0  0  0  0  0  0  0  0  0  0
    1.5273    2.8582    1.8102 H   0  0  0  0  0  0  0  0  0  0  0  0
    4.5747   -0.7393    2.0436 H   0  0  0  0  0  0  0  0  0  0  0  0
    5.6595    0.6641    1.9778 H   0  0  0  0  0  0  0  0  0  0  0  0
    2.2087   -0.4650    1.1618 H   0  0  0  0  0  0  0  0  0  0  0  0
    0.0229   -0.5115    0.7315 H   0  0  0  0  0  0  0  0  0  0  0  0
   -0.7469    0.6354   -0.3574 H   0  0  0  0  0  0  0  0  0  0  0  0
    0.4525    2.8066   -1.0768 H   0  0  0  0  0  0  0  0  0  0  0  0
    3.9690    1.9653    0.7179 H   0  0  0  0  0  0  0  0  0  0  0  0
    5.2303   -0.1938    0.4847 H   0  0  0  0  0  0  0  0  0  0  0  0
  1  2  1  0
  1  3  1  0
  1  4  1  0
  1  6  1  0
  2  5  1  0
  5  7  1  0
  2  8  1  0
  2 18  1  0
  3  9  1  0
  3 19  1  0
  3 20  1  0
  4 10  1  0
  4 11  1  0
  4 21  1  0
  5 12  1  0
  5 22  1  0
  6 13  1  0
  6 14  1  0
  6 15  1  0
  7 16  1  0
  7 17  1  0
  7 23  1  0
M  END
