none
     RDKit          3D

 25 25  0  0  0  0  0  0  0  0999 V2000
    1.2339    1.1816    0.2849 C   0  0  0  0  0  0  0  0  0  0  0  0
    2.5197    0.3567    0.5304 C   0  0  0  0  0  0  0  0  0  0  0  0
    0.1797    0.1240   -0.1341 C   0  0  0  0  0  0  0  0  0  0  0  0
    1.4004    2.2118   -0.8487 C   0  0  0  0  0  0  0  0  0  0  0  0
    3.5822    1.1766    1.2486 C   0  0  0  0  0  0  0  0  0  0  0  0
   -1.1620    0.7608   -0.3638 C   0  0  0  0  0  0  0  0  0  0  0  0
    0.2102    2.3190   -1.8098 C   0  0  0  0  0  0  0  0  0  0  0  0
   -1.1343    2.0636   -1.1164 C   0  0  0  0  0  0  0  0  0  0  0  0
   -2.3082    0.2100    0.0614 C   0  0  0  0  0  0  0  0  0  0  0  0
    2.9228   -0.0275   -0.4143 H   0  0  0  0  0  0  0  0  0  0  0  0
    0.4966   -0.3876   -1.0514 H   0  0  0  0  0  0  0  0  0  0  0  0
    2.3015    2.0062   -1.4418 H   0  0  0  0  0  0  0  0  0  0  0  0
    1.5732    3.1933   -0.3874 H   0  0  0  0  0  0  0  0  0  0  0  0
    3.2117    1.5357    2.2140 H   0  0  0  0  0  0  0  0  0  0  0  0
    0.3407    1.5884   -2.6195 H   0  0  0  0  0  0  0  0  0  0  0  0
    0.2073    3.3058   -2.2876 H   0  0  0  0  0  0  0  0  0  0  0  0
   -1.3186    2.8815   -0.4083 H   0  0  0  0  0  0  0  0  0  0  0  0
   -1.9319    2.0869   -1.8686 H   0  0  0  0  0  0  0  0  0  0  0  0
   -2.3218   -0.7304    0.6012 H   0  0  0  0  0  0  0  0  0  0  0  0
    0.9105    1.6758    1.2106 H   0  0  0  0  0  0  0  0  0  0  0  0
    2.2977   -0.5115    1.1612 H   0  0  0  0  0  0  0  0  0  0  0  0
    0.0956   -0.6468    0.6453 H   0  0  0  0  0  0  0  0  0  0  0  0
    4.4685    0.5627    1.4412 H   0  0  0  0  0  0  0  0  0  0  0  0
    3.8915    2.0443    0.6563 H   0  0  0  0  0  0  0  0  0  0  0  0
   -3.2636    0.6898   -0.1185 H   0  0  0  0  0  0  0  0  0  0  0  0
  1  2  1  0
  1  3  1  0
  1  4  1  0
  2  5  1  0
  3  6  1  0
  4  7  1  0
  6  8  1  0
  6  9  2  3
  7  8  1  0
  1 20  1  0
  2 10  1  0
  2 21  1  0
  3 11  1  0
  3 22  1  0
  4 12  1  0
  4 13  1  0
  5 14  1  0
  5 23  1  0
  5 24  1  0
  7 15  1  0
  7 16  1  0
  8 17  1  0
  8 18  1  0
  9 19  1  0
  9 25  1  0
M  END
