none
     RDKit          3D

 13 12  0  0  0  0  0  0  0  0999 V2000
    0.2153    0.1807   -0.0952 C   0  0  0  0  0  0  0  0  0  0  0  0
   -1.1528    0.7399   -0.3612 C   0  0  0  0  0  0  0  0  0  0  0  0
   -2.2973    0.1543    0.0260 C   0  0  0  0  0  0  0  0  0  0  0  0
   -3.6027    0.7065   -0.2513 C   0  0  0  0  0  0  0  0  0  0  0  0
   -4.7437    0.1225    0.1347 C   0  0  0  0  0  0  0  0  0  0  0  0
    0.7355    0.0034   -1.0425 H   0  0  0  0  0  0  0  0  0  0  0  0
   -2.2608   -0.7848    0.5731 H   0  0  0  0  0  0  0  0  0  0  0  0
   -3.6492    1.6440   -0.8021 H   0  0  0  0  0  0  0  0  0  0  0  0
    0.8017    0.8949    0.4921 H   0  0  0  0  0  0  0  0  0  0  0  0
    0.1750   -0.7646    0.4556 H   0  0  0  0  0  0  0  0  0  0  0  0
   -1.1801    1.6792   -0.9097 H   0  0  0  0  0  0  0  0  0  0  0  0
   -5.7022    0.5779   -0.0984 H   0  0  0  0  0  0  0  0  0  0  0  0
   -4.7579   -0.8127    0.6865 H   0  0  0  0  0  0  0  0  0  0  0  0
  1  2  1  0
  2  3  2  0
  3  4  1  0
  4  5  2  0
  1  6  1  0
  1  9  1  0
  1 10  1  0
  2 11  1  0
  3  7  1  0
  4  8  1  0
  5 12  1  0
  5 13  1  0
M  END
