none
     RDKit          3D

 26 25  0  0  0  0  0  0  0  0999 V2000
    1.2285    1.2537    0.2815 C   0  0  0  0  0  0  0  0  0  0  0  0
    2.4917    0.4146    0.5583 C   0  0  0  0  0  0  0  0  0  0  0  0
    0.1992    0.1838   -0.0831 C   0  0  0  0  0  0  0  0  0  0  0  0
    1.3907    2.2798   -0.8723 C   0  0  0  0  0  0  0  0  0  0  0  0
    3.6474    1.0855    1.2657 C   0  0  0  0  0  0  0  0  0  0  0  0
    0.1848    2.3547   -1.8168 C   0  0  0  0  0  0  0  0  0  0  0  0
    4.8532    0.1403    1.4574 C   0  0  0  0  0  0  0  0  0  0  0  0
    5.4332   -0.4531    0.1754 C   0  0  0  0  0  0  0  0  0  0  0  0
    2.8288    0.0117   -0.4070 H   0  0  0  0  0  0  0  0  0  0  0  0
    0.5084   -0.3575   -1.0033 H   0  0  0  0  0  0  0  0  0  0  0  0
    2.2762    2.0329   -1.4735 H   0  0  0  0  0  0  0  0  0  0  0  0
    1.5799    3.2823   -0.4595 H   0  0  0  0  0  0  0  0  0  0  0  0
    3.3138    1.4317    2.2588 H   0  0  0  0  0  0  0  0  0  0  0  0
    0.0420    1.4117   -2.3797 H   0  0  0  0  0  0  0  0  0  0  0  0
    0.3322    3.1354   -2.5531 H   0  0  0  0  0  0  0  0  0  0  0  0
    4.5740   -0.6797    2.1284 H   0  0  0  0  0  0  0  0  0  0  0  0
    5.6450    0.7045    1.9642 H   0  0  0  0  0  0  0  0  0  0  0  0
    5.6639    0.3272   -0.5559 H   0  0  0  0  0  0  0  0  0  0  0  0
    4.7460   -1.1722   -0.2865 H   0  0  0  0  0  0  0  0  0  0  0  0
    0.8967    1.7898    1.2073 H   0  0  0  0  0  0  0  0  0  0  0  0
    2.2100   -0.4624    1.1654 H   0  0  0  0  0  0  0  0  0  0  0  0
    0.1112   -0.5603    0.7087 H   0  0  0  0  0  0  0  0  0  0  0  0
   -0.7898    0.5888   -0.2322 H   0  0  0  0  0  0  0  0  0  0  0  0
    3.9621    1.9629    0.7088 H   0  0  0  0  0  0  0  0  0  0  0  0
   -0.7412    2.5812   -1.2704 H   0  0  0  0  0  0  0  0  0  0  0  0
    6.3648   -0.9949    0.3970 H   0  0  0  0  0  0  0  0  0  0  0  0
  1  2  1  0
  1  3  1  0
  1  4  1  0
  2  5  1  0
  4  6  1  0
  5  7  1  0
  7  8  1  0
  1 20  1  0
  2  9  1  0
  2 21  1  0
  3 10  1  0
  3 22  1  0
  3 23  1  0
  4 11  1  0
  4 12  1  0
  5 13  1  0
  5 24  1  0
  6 14  1  0
  6 15  1  0
  6 25  1  0
  7 16  1  0
  7 17  1  0
  8 18  1  0
  8 19  1  0
  8 26  1  0
M  END
