none
     RDKit          3D

 20 19  0  0  0  0  0  0  0  0999 V2000
    1.2307    1.2908    0.2941 C   0  0  0  0  0  0  0  0  0  0  0  0
    2.4751    0.4055    0.5523 C   0  0  0  0  0  0  0  0  0  0  0  0
    1.9332   -0.8179    1.3125 C   0  0  0  0  0  0  0  0  0  0  0  0
    1.3945    2.2836   -0.8715 C   0  0  0  0  0  0  0  0  0  0  0  0
    3.6429    1.0791    1.2755 C   0  0  0  0  0  0  0  0  0  0  0  0
    4.8522    0.1426    1.4556 C   0  0  0  0  0  0  0  0  0  0  0  0
    2.8398    0.0462   -0.4183 H   0  0  0  0  0  0  0  0  0  0  0  0
    2.7078   -1.5735    1.4600 H   0  0  0  0  0  0  0  0  0  0  0  0
    1.5453   -0.5309    2.2955 H   0  0  0  0  0  0  0  0  0  0  0  0
    1.6590    1.7570   -1.7955 H   0  0  0  0  0  0  0  0  0  0  0  0
    2.1779    3.0155   -0.6495 H   0  0  0  0  0  0  0  0  0  0  0  0
    3.3234    1.4435    2.2585 H   0  0  0  0  0  0  0  0  0  0  0  0
    4.6336   -0.6610    2.1655 H   0  0  0  0  0  0  0  0  0  0  0  0
    5.7022    0.7090    1.8494 H   0  0  0  0  0  0  0  0  0  0  0  0
    0.3636    0.6626    0.0475 H   0  0  0  0  0  0  0  0  0  0  0  0
    0.9703    1.8428    1.2052 H   0  0  0  0  0  0  0  0  0  0  0  0
    1.1263   -1.3070    0.7534 H   0  0  0  0  0  0  0  0  0  0  0  0
    0.4566    2.8264   -1.0413 H   0  0  0  0  0  0  0  0  0  0  0  0
    3.9688    1.9549    0.7021 H   0  0  0  0  0  0  0  0  0  0  0  0
    5.1525   -0.3022    0.5009 H   0  0  0  0  0  0  0  0  0  0  0  0
  1  2  1  0
  1  4  1  0
  2  3  1  0
  2  5  1  0
  5  6  1  0
  1 15  1  0
  1 16  1  0
  2  7  1  0
  3  8  1  0
  3  9  1  0
  3 17  1  0
  4 10  1  0
  4 11  1  0
  4 18  1  0
  5 12  1  0
  5 19  1  0
  6 13  1  0
  6 14  1  0
  6 20  1  0
M  END
