none
     RDKit          3D

 14 13  0  0  0  0  0  0  0  0999 V2000
    6.5858   -1.4283    0.4130 C   0  0  0  0  0  0  0  0  0  0  0  0
    7.2138   -1.9651   -0.8740 C   0  0  0  0  0  0  0  0  0  0  0  0
    7.7639   -0.8811   -1.7878 C   0  0  0  0  0  0  0  0  0  0  0  0
    5.4256   -0.4734    0.1788 C   0  0  0  0  0  0  0  0  0  0  0  0
    6.2304   -2.2776    1.0085 H   0  0  0  0  0  0  0  0  0  0  0  0
    7.3518   -0.9213    1.0115 H   0  0  0  0  0  0  0  0  0  0  0  0
    8.0280   -2.6490   -0.6063 H   0  0  0  0  0  0  0  0  0  0  0  0
    6.9650   -0.2512   -2.1900 H   0  0  0  0  0  0  0  0  0  0  0  0
    8.2853   -1.3350   -2.6368 H   0  0  0  0  0  0  0  0  0  0  0  0
    8.4757   -0.2424   -1.2553 H   0  0  0  0  0  0  0  0  0  0  0  0
    5.7586    0.4542   -0.2960 H   0  0  0  0  0  0  0  0  0  0  0  0
    4.6604   -0.9331   -0.4545 H   0  0  0  0  0  0  0  0  0  0  0  0
    6.4730   -2.5562   -1.4252 H   0  0  0  0  0  0  0  0  0  0  0  0
    4.9604   -0.2070    1.1334 H   0  0  0  0  0  0  0  0  0  0  0  0
  1  2  1  0
  1  4  1  0
  2  3  1  0
  1  5  1  0
  1  6  1  0
  2  7  1  0
  2 13  1  0
  3  8  1  0
  3  9  1  0
  3 10  1  0
  4 11  1  0
  4 12  1  0
  4 14  1  0
M  END
