none
     RDKit          3D

 13 12  0  0  0  0  0  0  0  0999 V2000
   -2.3336    0.1799    0.0125 C   0  0  0  0  0  0  0  0  0  0  0  0
   -3.5281    0.7026   -0.2518 C   0  0  0  0  0  0  0  0  0  0  0  0
   -4.7852    0.0556    0.1728 C   0  0  0  0  0  0  0  0  0  0  0  0
   -6.0923    0.7107   -0.2126 C   0  0  0  0  0  0  0  0  0  0  0  0
   -4.7843   -1.0937    0.8543 C   0  0  0  0  0  0  0  0  0  0  0  0
   -2.1329   -0.7621    0.5613 H   0  0  0  0  0  0  0  0  0  0  0  0
   -3.6269    1.6428   -0.8027 H   0  0  0  0  0  0  0  0  0  0  0  0
   -6.1857    0.8222   -1.2981 H   0  0  0  0  0  0  0  0  0  0  0  0
   -6.1992    1.6951    0.2546 H   0  0  0  0  0  0  0  0  0  0  0  0
   -1.4270    0.6960   -0.3270 H   0  0  0  0  0  0  0  0  0  0  0  0
   -6.9357    0.0876    0.1285 H   0  0  0  0  0  0  0  0  0  0  0  0
   -5.7343   -1.5705    1.1518 H   0  0  0  0  0  0  0  0  0  0  0  0
   -3.8931   -1.6620    1.1803 H   0  0  0  0  0  0  0  0  0  0  0  0
  1  2  2  3
  2  3  1  0
  3  4  1  0
  3  5  2  3
  1  6  1  0
  1 10  1  0
  2  7  1  0
  4  8  1  0
  4  9  1  0
  4 11  1  0
  5 12  1  0
  5 13  1  0
M  END
