none
     RDKit          3D

 22 21  0  0  0  0  0  0  0  0999 V2000
    1.3888    2.2933   -0.8821 C   0  0  0  0  0  0  0  0  0  0  0  0
   -1.1713    0.7500   -0.3669 C   0  0  0  0  0  0  0  0  0  0  0  0
    0.1851    2.3344   -1.8117 C   0  0  0  0  0  0  0  0  0  0  0  0
   -1.1397    2.0440   -1.1274 C   0  0  0  0  0  0  0  0  0  0  0  0
   -2.2996    0.1520    0.0256 C   0  0  0  0  0  0  0  0  0  0  0  0
   -3.6120    0.6999   -0.2455 C   0  0  0  0  0  0  0  0  0  0  0  0
   -4.7545    0.1276    0.1284 C   0  0  0  0  0  0  0  0  0  0  0  0
   -6.0898    0.7004   -0.2041 C   0  0  0  0  0  0  0  0  0  0  0  0
    2.2747    2.6726   -1.3973 H   0  0  0  0  0  0  0  0  0  0  0  0
    1.2273    2.9034    0.0135 H   0  0  0  0  0  0  0  0  0  0  0  0
    0.3374    1.6250   -2.6340 H   0  0  0  0  0  0  0  0  0  0  0  0
    0.1244    3.3343   -2.2703 H   0  0  0  0  0  0  0  0  0  0  0  0
   -1.3832    2.8641   -0.4336 H   0  0  0  0  0  0  0  0  0  0  0  0
   -1.9242    2.0447   -1.9183 H   0  0  0  0  0  0  0  0  0  0  0  0
   -2.2500   -0.7792    0.5810 H   0  0  0  0  0  0  0  0  0  0  0  0
   -3.6748    1.6426   -0.7958 H   0  0  0  0  0  0  0  0  0  0  0  0
   -6.0155    1.6476   -0.7622 H   0  0  0  0  0  0  0  0  0  0  0  0
   -6.6602    0.8944    0.7082 H   0  0  0  0  0  0  0  0  0  0  0  0
    1.6294    1.2657   -0.5623 H   0  0  0  0  0  0  0  0  0  0  0  0
   -0.2197    0.2634   -0.0969 H   0  0  0  0  0  0  0  0  0  0  0  0
   -4.7426   -0.8119    0.6891 H   0  0  0  0  0  0  0  0  0  0  0  0
   -6.6587   -0.0050   -0.8230 H   0  0  0  0  0  0  0  0  0  0  0  0
  1  3  1  0
  2  4  1  0
  2  5  2  0
  3  4  1  0
  5  6  1  0
  6  7  2  0
  7  8  1  0
  1  9  1  0
  1 10  1  0
  1 19  1  0
  2 20  1  0
  3 11  1  0
  3 12  1  0
  4 13  1  0
  4 14  1  0
  5 15  1  0
  6 16  1  0
  7 21  1  0
  8 17  1  0
  8 18  1  0
  8 22  1  0
M  END
