none
     RDKit          3D

 29 28  0  0  0  0  0  0  0  0999 V2000
    1.2306    1.2763    0.2926 C   0  0  0  0  0  0  0  0  0  0  0  0
    2.4837    0.4120    0.5547 C   0  0  0  0  0  0  0  0  0  0  0  0
    0.2110    0.1867   -0.0960 C   0  0  0  0  0  0  0  0  0  0  0  0
    1.3940    2.2831   -0.8697 C   0  0  0  0  0  0  0  0  0  0  0  0
    3.6441    1.0814    1.2720 C   0  0  0  0  0  0  0  0  0  0  0  0
    4.8534    0.1389    1.4579 C   0  0  0  0  0  0  0  0  0  0  0  0
    5.4375   -0.4590    0.1672 C   0  0  0  0  0  0  0  0  0  0  0  0
    6.5907   -1.4393    0.4216 C   0  0  0  0  0  0  0  0  0  0  0  0
    7.2192   -1.9844   -0.8700 C   0  0  0  0  0  0  0  0  0  0  0  0
    2.8250    0.0269   -0.4133 H   0  0  0  0  0  0  0  0  0  0  0  0
    0.5450   -0.3974   -0.9663 H   0  0  0  0  0  0  0  0  0  0  0  0
    1.7507    1.7827   -1.7802 H   0  0  0  0  0  0  0  0  0  0  0  0
    2.1156    3.0640   -0.6061 H   0  0  0  0  0  0  0  0  0  0  0  0
    3.3151    1.4316    2.2600 H   0  0  0  0  0  0  0  0  0  0  0  0
    4.5567   -0.6792    2.1238 H   0  0  0  0  0  0  0  0  0  0  0  0
    5.6423    0.6942    1.9780 H   0  0  0  0  0  0  0  0  0  0  0  0
    5.7850    0.3556   -0.4788 H   0  0  0  0  0  0  0  0  0  0  0  0
    4.6629   -1.0015   -0.3841 H   0  0  0  0  0  0  0  0  0  0  0  0
    6.2264   -2.2826    1.0205 H   0  0  0  0  0  0  0  0  0  0  0  0
    7.3712   -0.9408    1.0062 H   0  0  0  0  0  0  0  0  0  0  0  0
    8.0311   -2.6821   -0.6307 H   0  0  0  0  0  0  0  0  0  0  0  0
    0.9012    1.7951    1.2057 H   0  0  0  0  0  0  0  0  0  0  0  0
    2.2079   -0.4678    1.1546 H   0  0  0  0  0  0  0  0  0  0  0  0
    0.0308   -0.5093    0.7348 H   0  0  0  0  0  0  0  0  0  0  0  0
   -0.7471    0.6368   -0.3506 H   0  0  0  0  0  0  0  0  0  0  0  0
    0.4356    2.7686   -1.1027 H   0  0  0  0  0  0  0  0  0  0  0  0
    3.9648    1.9625    0.7109 H   0  0  0  0  0  0  0  0  0  0  0  0
    7.6341   -1.1708   -1.4750 H   0  0  0  0  0  0  0  0  0  0  0  0
    6.4755   -2.5174   -1.4704 H   0  0  0  0  0  0  0  0  0  0  0  0
  1  2  1  0
  1  3  1  0
  1  4  1  0
  2  5  1  0
  5  6  1  0
  6  7  1  0
  7  8  1  0
  8  9  1  0
  1 22  1  0
  2 10  1  0
  2 23  1  0
  3 11  1  0
  3 24  1  0
  3 25  1  0
  4 12  1  0
  4 13  1  0
  4 26  1  0
  5 14  1  0
  5 27  1  0
  6 15  1  0
  6 16  1  0
  7 17  1  0
  7 18  1  0
  8 19  1  0
  8 20  1  0
  9 21  1  0
  9 28  1  0
  9 29  1  0
M  END
