none
     RDKit          3D

 18 18  0  0  0  0  0  0  0  0999 V2000
    1.2255    1.2567    0.2653 C   0  0  0  0  0  0  0  0  0  0  0  0
    2.4642    0.4217    0.5543 C   0  0  0  0  0  0  0  0  0  0  0  0
    0.2148    0.1838   -0.0860 C   0  0  0  0  0  0  0  0  0  0  0  0
    1.9315   -0.8036    1.3037 C   0  0  0  0  0  0  0  0  0  0  0  0
    0.4436   -0.8882    0.9644 C   0  0  0  0  0  0  0  0  0  0  0  0
    1.4007    2.2689   -0.8486 C   0  0  0  0  0  0  0  0  0  0  0  0
    2.9331    0.0926   -0.3824 H   0  0  0  0  0  0  0  0  0  0  0  0
    0.4296   -0.2214   -1.0828 H   0  0  0  0  0  0  0  0  0  0  0  0
    2.4636   -1.7192    1.0142 H   0  0  0  0  0  0  0  0  0  0  0  0
    2.0588   -0.6913    2.3881 H   0  0  0  0  0  0  0  0  0  0  0  0
    0.1540   -1.8849    0.6038 H   0  0  0  0  0  0  0  0  0  0  0  0
   -0.1595   -0.6834    1.8565 H   0  0  0  0  0  0  0  0  0  0  0  0
    1.7038    1.7819   -1.7848 H   0  0  0  0  0  0  0  0  0  0  0  0
    2.1545    3.0282   -0.6161 H   0  0  0  0  0  0  0  0  0  0  0  0
    0.9204    1.7869    1.1861 H   0  0  0  0  0  0  0  0  0  0  0  0
    3.2324    0.9456    1.1345 H   0  0  0  0  0  0  0  0  0  0  0  0
   -0.8150    0.5512   -0.0892 H   0  0  0  0  0  0  0  0  0  0  0  0
    0.4580    2.7961   -1.0611 H   0  0  0  0  0  0  0  0  0  0  0  0
  1  2  1  0
  1  3  1  0
  1  6  1  0
  2  4  1  0
  3  5  1  0
  4  5  1  0
  1 15  1  0
  2  7  1  0
  2 16  1  0
  3  8  1  0
  3 17  1  0
  4  9  1  0
  4 10  1  0
  5 11  1  0
  5 12  1  0
  6 13  1  0
  6 14  1  0
  6 18  1  0
M  END
