none
     RDKit          3D

 20 19  0  0  0  0  0  0  0  0999 V2000
    4.8550    0.1389    1.4554 C   0  0  0  0  0  0  0  0  0  0  0  0
    5.4361   -0.4579    0.1716 C   0  0  0  0  0  0  0  0  0  0  0  0
    6.5889   -1.4374    0.4217 C   0  0  0  0  0  0  0  0  0  0  0  0
    7.2193   -1.9862   -0.8731 C   0  0  0  0  0  0  0  0  0  0  0  0
    7.7455   -0.8766   -1.7860 C   0  0  0  0  0  0  0  0  0  0  0  0
    6.1987   -2.8366   -1.6319 C   0  0  0  0  0  0  0  0  0  0  0  0
    4.4611   -0.6479    2.1059 H   0  0  0  0  0  0  0  0  0  0  0  0
    5.6200    0.6938    2.0075 H   0  0  0  0  0  0  0  0  0  0  0  0
    5.7727    0.3760   -0.4529 H   0  0  0  0  0  0  0  0  0  0  0  0
    4.6227   -0.9579   -0.3645 H   0  0  0  0  0  0  0  0  0  0  0  0
    6.2322   -2.2720    1.0393 H   0  0  0  0  0  0  0  0  0  0  0  0
    7.3673   -0.9299    1.0042 H   0  0  0  0  0  0  0  0  0  0  0  0
    8.0628   -2.6293   -0.5882 H   0  0  0  0  0  0  0  0  0  0  0  0
    6.9382   -0.2855   -2.2311 H   0  0  0  0  0  0  0  0  0  0  0  0
    8.3220   -1.3080   -2.6113 H   0  0  0  0  0  0  0  0  0  0  0  0
    8.4072   -0.1998   -1.2362 H   0  0  0  0  0  0  0  0  0  0  0  0
    5.3812   -2.2361   -2.0450 H   0  0  0  0  0  0  0  0  0  0  0  0
    6.6816   -3.3470   -2.4713 H   0  0  0  0  0  0  0  0  0  0  0  0
    5.7668   -3.6052   -0.9823 H   0  0  0  0  0  0  0  0  0  0  0  0
    4.0373    0.8279    1.2167 H   0  0  0  0  0  0  0  0  0  0  0  0
  1  2  1  0
  2  3  1  0
  3  4  1  0
  4  5  1  0
  4  6  1  0
  1  7  1  0
  1  8  1  0
  1 20  1  0
  2  9  1  0
  2 10  1  0
  3 11  1  0
  3 12  1  0
  4 13  1  0
  5 14  1  0
  5 15  1  0
  5 16  1  0
  6 17  1  0
  6 18  1  0
  6 19  1  0
M  END
