none
     RDKit          3D

 20 20  0  0  0  0  0  0  0  0999 V2000
   -3.6050    0.7057   -0.2490 C   0  0  0  0  0  0  0  0  0  0  0  0
   -4.7510    0.1229    0.1372 C   0  0  0  0  0  0  0  0  0  0  0  0
   -6.1038    0.7049   -0.2010 C   0  0  0  0  0  0  0  0  0  0  0  0
   -4.7825   -1.1358    0.8735 C   0  0  0  0  0  0  0  0  0  0  0  0
   -7.0432   -0.3384   -0.8095 C   0  0  0  0  0  0  0  0  0  0  0  0
   -5.7372   -2.1731    0.3304 C   0  0  0  0  0  0  0  0  0  0  0  0
   -7.1259   -1.5886    0.0664 C   0  0  0  0  0  0  0  0  0  0  0  0
   -4.0471   -1.3472    1.9764 C   0  0  0  0  0  0  0  0  0  0  0  0
   -3.6047    1.6355   -0.8085 H   0  0  0  0  0  0  0  0  0  0  0  0
   -6.0094    1.5475   -0.8967 H   0  0  0  0  0  0  0  0  0  0  0  0
   -6.5530    1.1054    0.7172 H   0  0  0  0  0  0  0  0  0  0  0  0
   -8.0429    0.0927   -0.9338 H   0  0  0  0  0  0  0  0  0  0  0  0
   -5.3269   -2.5738   -0.6058 H   0  0  0  0  0  0  0  0  0  0  0  0
   -5.8331   -3.0214    1.0189 H   0  0  0  0  0  0  0  0  0  0  0  0
   -7.7561   -2.3405   -0.4219 H   0  0  0  0  0  0  0  0  0  0  0  0
   -7.6077   -1.3359    1.0194 H   0  0  0  0  0  0  0  0  0  0  0  0
   -4.0964   -2.2871    2.5166 H   0  0  0  0  0  0  0  0  0  0  0  0
   -3.3826   -0.5866    2.3744 H   0  0  0  0  0  0  0  0  0  0  0  0
   -2.6374    0.2675   -0.0246 H   0  0  0  0  0  0  0  0  0  0  0  0
   -6.6870   -0.6163   -1.8096 H   0  0  0  0  0  0  0  0  0  0  0  0
  1  2  2  3
  2  3  1  0
  2  4  1  0
  3  5  1  0
  4  6  1  0
  4  8  2  3
  5  7  1  0
  6  7  1  0
  1  9  1  0
  1 19  1  0
  3 10  1  0
  3 11  1  0
  5 12  1  0
  5 20  1  0
  6 13  1  0
  6 14  1  0
  7 15  1  0
  7 16  1  0
  8 17  1  0
  8 18  1  0
M  END
