none
     RDKit          3D

 29 28  0  0  0  0  0  0  0  0999 V2000
    1.2348    1.2899    0.2930 C   0  0  0  0  0  0  0  0  0  0  0  0
    2.4704    0.4017    0.5512 C   0  0  0  0  0  0  0  0  0  0  0  0
    1.9366   -0.8197    1.3143 C   0  0  0  0  0  0  0  0  0  0  0  0
    1.3869    2.2832   -0.8739 C   0  0  0  0  0  0  0  0  0  0  0  0
    3.6445    1.0833    1.2756 C   0  0  0  0  0  0  0  0  0  0  0  0
    0.1730    2.3348   -1.8133 C   0  0  0  0  0  0  0  0  0  0  0  0
   -1.1676    2.0510   -1.1350 C   0  0  0  0  0  0  0  0  0  0  0  0
    4.8513    0.1421    1.4553 C   0  0  0  0  0  0  0  0  0  0  0  0
    4.0917    2.3322    0.5129 C   0  0  0  0  0  0  0  0  0  0  0  0
    2.8336    0.0370   -0.4174 H   0  0  0  0  0  0  0  0  0  0  0  0
    2.7061   -1.5817    1.4367 H   0  0  0  0  0  0  0  0  0  0  0  0
    1.5697   -0.5388    2.3077 H   0  0  0  0  0  0  0  0  0  0  0  0
    2.2684    2.0592   -1.4894 H   0  0  0  0  0  0  0  0  0  0  0  0
    1.5279    3.2911   -0.4605 H   0  0  0  0  0  0  0  0  0  0  0  0
    3.3184    1.3954    2.2754 H   0  0  0  0  0  0  0  0  0  0  0  0
    0.3120    1.6038   -2.6201 H   0  0  0  0  0  0  0  0  0  0  0  0
    0.1390    3.3231   -2.2931 H   0  0  0  0  0  0  0  0  0  0  0  0
   -1.2659    2.6008   -0.1927 H   0  0  0  0  0  0  0  0  0  0  0  0
   -1.9813    2.3634   -1.7923 H   0  0  0  0  0  0  0  0  0  0  0  0
    4.6136   -0.6940    2.1206 H   0  0  0  0  0  0  0  0  0  0  0  0
    5.6951    0.6775    1.9059 H   0  0  0  0  0  0  0  0  0  0  0  0
    3.3622    3.1430    0.6026 H   0  0  0  0  0  0  0  0  0  0  0  0
    5.0170    2.7236    0.9355 H   0  0  0  0  0  0  0  0  0  0  0  0
    4.2864    2.1204   -0.5456 H   0  0  0  0  0  0  0  0  0  0  0  0
    0.4042    0.6072    0.0796 H   0  0  0  0  0  0  0  0  0  0  0  0
    0.9556    1.8311    1.2082 H   0  0  0  0  0  0  0  0  0  0  0  0
    1.1106   -1.2996    0.7692 H   0  0  0  0  0  0  0  0  0  0  0  0
   -1.3187    0.9788   -0.9503 H   0  0  0  0  0  0  0  0  0  0  0  0
    5.1849   -0.2664    0.4949 H   0  0  0  0  0  0  0  0  0  0  0  0
  1  2  1  0
  1  4  1  0
  2  3  1  0
  2  5  1  0
  4  6  1  0
  5  8  1  0
  5  9  1  0
  6  7  1  0
  1 25  1  0
  1 26  1  0
  2 10  1  0
  3 11  1  0
  3 12  1  0
  3 27  1  0
  4 13  1  0
  4 14  1  0
  5 15  1  0
  6 16  1  0
  6 17  1  0
  7 18  1  0
  7 19  1  0
  7 28  1  0
  8 20  1  0
  8 21  1  0
  8 29  1  0
  9 22  1  0
  9 23  1  0
  9 24  1  0
M  END
