none
     RDKit          3D

 17 16  0  0  0  0  0  0  0  0999 V2000
    1.2245    1.3184    0.2860 C   0  0  0  0  0  0  0  0  0  0  0  0
    0.2624    0.1875   -0.0510 C   0  0  0  0  0  0  0  0  0  0  0  0
    0.3958   -0.9445    0.9529 C   0  0  0  0  0  0  0  0  0  0  0  0
    1.3908    2.2930   -0.8798 C   0  0  0  0  0  0  0  0  0  0  0  0
    0.8194    2.0703    1.5614 C   0  0  0  0  0  0  0  0  0  0  0  0
    0.4579   -0.2099   -1.0422 H   0  0  0  0  0  0  0  0  0  0  0  0
   -0.1973   -1.8044    0.6961 H   0  0  0  0  0  0  0  0  0  0  0  0
    0.1069   -0.5971    1.9624 H   0  0  0  0  0  0  0  0  0  0  0  0
    1.7330    1.7677   -1.7743 H   0  0  0  0  0  0  0  0  0  0  0  0
    2.1258    3.0555   -0.6327 H   0  0  0  0  0  0  0  0  0  0  0  0
   -0.1942    2.4740    1.4621 H   0  0  0  0  0  0  0  0  0  0  0  0
    0.8406    1.4297    2.4319 H   0  0  0  0  0  0  0  0  0  0  0  0
    1.4999    2.8985    1.7510 H   0  0  0  0  0  0  0  0  0  0  0  0
    2.2197    0.8734    0.4657 H   0  0  0  0  0  0  0  0  0  0  0  0
   -0.7699    0.5398   -0.0729 H   0  0  0  0  0  0  0  0  0  0  0  0
    1.4600   -1.2467    1.0190 H   0  0  0  0  0  0  0  0  0  0  0  0
    0.4347    2.7856   -1.1080 H   0  0  0  0  0  0  0  0  0  0  0  0
  1  2  1  0
  1  4  1  0
  1  5  1  0
  2  3  1  0
  1 14  1  0
  2  6  1  0
  2 15  1  0
  3  7  1  0
  3  8  1  0
  3 16  1  0
  4  9  1  0
  4 10  1  0
  4 17  1  0
  5 11  1  0
  5 12  1  0
  5 13  1  0
M  END
