none
     RDKit          3D

 29 28  0  0  0  0  0  0  0  0999 V2000
    2.4768    0.4108    0.5624 C   0  0  0  0  0  0  0  0  0  0  0  0
    1.9167   -0.8031    1.2985 C   0  0  0  0  0  0  0  0  0  0  0  0
    0.4349   -0.9120    0.9737 C   0  0  0  0  0  0  0  0  0  0  0  0
    3.6568    1.0684    1.2659 C   0  0  0  0  0  0  0  0  0  0  0  0
    4.8578    0.1386    1.4640 C   0  0  0  0  0  0  0  0  0  0  0  0
    5.4305   -0.4579    0.1672 C   0  0  0  0  0  0  0  0  0  0  0  0
    6.5928   -1.4345    0.4210 C   0  0  0  0  0  0  0  0  0  0  0  0
    7.2154   -1.9784   -0.8720 C   0  0  0  0  0  0  0  0  0  0  0  0
    7.7483   -0.8827   -1.7824 C   0  0  0  0  0  0  0  0  0  0  0  0
    2.7442    0.1294   -0.4711 H   0  0  0  0  0  0  0  0  0  0  0  0
    2.4470   -1.7253    0.9890 H   0  0  0  0  0  0  0  0  0  0  0  0
    2.0413   -0.7058    2.3942 H   0  0  0  0  0  0  0  0  0  0  0  0
    0.0362   -1.8791    1.2676 H   0  0  0  0  0  0  0  0  0  0  0  0
   -0.1268   -0.1311    1.5115 H   0  0  0  0  0  0  0  0  0  0  0  0
    3.3188    1.4481    2.2538 H   0  0  0  0  0  0  0  0  0  0  0  0
    4.5831   -0.6723    2.1406 H   0  0  0  0  0  0  0  0  0  0  0  0
    5.6431    0.7102    1.9637 H   0  0  0  0  0  0  0  0  0  0  0  0
    5.7654    0.3696   -0.4644 H   0  0  0  0  0  0  0  0  0  0  0  0
    4.6592   -0.9970   -0.3815 H   0  0  0  0  0  0  0  0  0  0  0  0
    6.2348   -2.2824    1.0251 H   0  0  0  0  0  0  0  0  0  0  0  0
    7.3676   -0.9344    1.0072 H   0  0  0  0  0  0  0  0  0  0  0  0
    8.0491   -2.6493   -0.6032 H   0  0  0  0  0  0  0  0  0  0  0  0
    6.9323   -0.2974   -2.2296 H   0  0  0  0  0  0  0  0  0  0  0  0
    8.3255   -1.3147   -2.6032 H   0  0  0  0  0  0  0  0  0  0  0  0
    8.4023   -0.1958   -1.2355 H   0  0  0  0  0  0  0  0  0  0  0  0
    1.6930    1.1682    0.4576 H   0  0  0  0  0  0  0  0  0  0  0  0
    0.2622   -0.7785   -0.1076 H   0  0  0  0  0  0  0  0  0  0  0  0
    3.9629    1.9500    0.6915 H   0  0  0  0  0  0  0  0  0  0  0  0
    6.4868   -2.5898   -1.4191 H   0  0  0  0  0  0  0  0  0  0  0  0
  1  2  1  0
  1  4  1  0
  2  3  1  0
  4  5  1  0
  5  6  1  0
  6  7  1  0
  7  8  1  0
  8  9  1  0
  1 10  1  0
  1 26  1  0
  2 11  1  0
  2 12  1  0
  3 13  1  0
  3 14  1  0
  3 27  1  0
  4 15  1  0
  4 28  1  0
  5 16  1  0
  5 17  1  0
  6 18  1  0
  6 19  1  0
  7 20  1  0
  7 21  1  0
  8 22  1  0
  8 29  1  0
  9 23  1  0
  9 24  1  0
  9 25  1  0
M  END
