none
     RDKit          3D

 22 21  0  0  0  0  0  0  0  0999 V2000
    1.2347    1.2657    0.2982 C   0  0  0  0  0  0  0  0  0  0  0  0
    2.4853    0.4205    0.5570 C   0  0  0  0  0  0  0  0  0  0  0  0
    0.2100    0.1860   -0.0959 C   0  0  0  0  0  0  0  0  0  0  0  0
   -1.1557    0.7485   -0.3657 C   0  0  0  0  0  0  0  0  0  0  0  0
   -1.1630    2.0461   -1.1339 C   0  0  0  0  0  0  0  0  0  0  0  0
   -2.2982    0.1541    0.0254 C   0  0  0  0  0  0  0  0  0  0  0  0
   -3.6077    0.7045   -0.2475 C   0  0  0  0  0  0  0  0  0  0  0  0
   -4.7439    0.1204    0.1353 C   0  0  0  0  0  0  0  0  0  0  0  0
    2.7859   -0.1388   -0.3418 H   0  0  0  0  0  0  0  0  0  0  0  0
    0.5546   -0.3255   -1.0089 H   0  0  0  0  0  0  0  0  0  0  0  0
   -1.0405    2.8949   -0.4516 H   0  0  0  0  0  0  0  0  0  0  0  0
   -2.0575    2.2085   -1.7396 H   0  0  0  0  0  0  0  0  0  0  0  0
   -2.2602   -0.7855    0.5714 H   0  0  0  0  0  0  0  0  0  0  0  0
   -3.7030    1.6578   -0.7607 H   0  0  0  0  0  0  0  0  0  0  0  0
    1.4357    1.9934   -0.5071 H   0  0  0  0  0  0  0  0  0  0  0  0
    0.9294    1.8145    1.2040 H   0  0  0  0  0  0  0  0  0  0  0  0
    2.3215   -0.2989    1.3725 H   0  0  0  0  0  0  0  0  0  0  0  0
    3.3159    1.0600    0.8430 H   0  0  0  0  0  0  0  0  0  0  0  0
    0.1520   -0.5794    0.6937 H   0  0  0  0  0  0  0  0  0  0  0  0
   -0.3461    2.0607   -1.8600 H   0  0  0  0  0  0  0  0  0  0  0  0
   -5.7028    0.5846   -0.0804 H   0  0  0  0  0  0  0  0  0  0  0  0
   -4.7573   -0.8233    0.6693 H   0  0  0  0  0  0  0  0  0  0  0  0
  1  2  1  0
  1  3  1  0
  3  4  1  0
  4  5  1  0
  4  6  2  0
  6  7  1  0
  7  8  2  0
  1 15  1  0
  1 16  1  0
  2  9  1  0
  2 17  1  0
  2 18  1  0
  3 10  1  0
  3 19  1  0
  5 11  1  0
  5 12  1  0
  5 20  1  0
  6 13  1  0
  7 14  1  0
  8 21  1  0
  8 22  1  0
M  END
