none
     RDKit          3D

 14 13  0  0  0  0  0  0  0  0999 V2000
    6.6001   -1.4315    0.4008 C   0  0  0  0  0  0  0  0  0  0  0  0
    7.2143   -1.9981   -0.8774 C   0  0  0  0  0  0  0  0  0  0  0  0
    7.7379   -0.8722   -1.7663 C   0  0  0  0  0  0  0  0  0  0  0  0
    6.1946   -2.8481   -1.6321 C   0  0  0  0  0  0  0  0  0  0  0  0
    6.2497   -2.2377    1.0540 H   0  0  0  0  0  0  0  0  0  0  0  0
    7.3373   -0.8452    0.9594 H   0  0  0  0  0  0  0  0  0  0  0  0
    8.0596   -2.6394   -0.5991 H   0  0  0  0  0  0  0  0  0  0  0  0
    6.9304   -0.1991   -2.0742 H   0  0  0  0  0  0  0  0  0  0  0  0
    8.2051   -1.2763   -2.6705 H   0  0  0  0  0  0  0  0  0  0  0  0
    8.4909   -0.2780   -1.2378 H   0  0  0  0  0  0  0  0  0  0  0  0
    5.3259   -2.2534   -1.9347 H   0  0  0  0  0  0  0  0  0  0  0  0
    6.6404   -3.2797   -2.5345 H   0  0  0  0  0  0  0  0  0  0  0  0
    5.8385   -3.6739   -1.0072 H   0  0  0  0  0  0  0  0  0  0  0  0
    5.7475   -0.7807    0.1789 H   0  0  0  0  0  0  0  0  0  0  0  0
  1  2  1  0
  2  3  1  0
  2  4  1  0
  1  5  1  0
  1  6  1  0
  1 14  1  0
  2  7  1  0
  3  8  1  0
  3  9  1  0
  3 10  1  0
  4 11  1  0
  4 12  1  0
  4 13  1  0
M  END
