none
     RDKit          3D

 27 26  0  0  0  0  0  0  0  0999 V2000
    1.2344    1.2682    0.3009 C   0  0  0  0  0  0  0  0  0  0  0  0
    2.4858    0.4094    0.5564 C   0  0  0  0  0  0  0  0  0  0  0  0
    0.2095    0.1861   -0.0974 C   0  0  0  0  0  0  0  0  0  0  0  0
    3.6455    1.0863    1.2737 C   0  0  0  0  0  0  0  0  0  0  0  0
   -1.1546    0.7472   -0.3643 C   0  0  0  0  0  0  0  0  0  0  0  0
   -1.1712    2.0445   -1.1314 C   0  0  0  0  0  0  0  0  0  0  0  0
    4.8491    0.1408    1.4556 C   0  0  0  0  0  0  0  0  0  0  0  0
    4.0858    2.3321    0.5088 C   0  0  0  0  0  0  0  0  0  0  0  0
   -2.2966    0.1539    0.0266 C   0  0  0  0  0  0  0  0  0  0  0  0
    2.8353    0.0123   -0.4056 H   0  0  0  0  0  0  0  0  0  0  0  0
    0.5555   -0.3263   -1.0078 H   0  0  0  0  0  0  0  0  0  0  0  0
    3.3096    1.3920    2.2729 H   0  0  0  0  0  0  0  0  0  0  0  0
   -0.8185    2.8753   -0.5076 H   0  0  0  0  0  0  0  0  0  0  0  0
   -2.1787    2.2994   -1.4670 H   0  0  0  0  0  0  0  0  0  0  0  0
    4.5634   -0.7491    2.0233 H   0  0  0  0  0  0  0  0  0  0  0  0
    5.6558    0.6427    2.0037 H   0  0  0  0  0  0  0  0  0  0  0  0
    3.2930    3.0866    0.4840 H   0  0  0  0  0  0  0  0  0  0  0  0
    4.9533    2.7933    0.9894 H   0  0  0  0  0  0  0  0  0  0  0  0
    4.3628    2.0906   -0.5242 H   0  0  0  0  0  0  0  0  0  0  0  0
   -2.2928   -0.7829    0.5733 H   0  0  0  0  0  0  0  0  0  0  0  0
    1.4177    2.0000   -0.5060 H   0  0  0  0  0  0  0  0  0  0  0  0
    0.9190    1.8076    1.2061 H   0  0  0  0  0  0  0  0  0  0  0  0
    2.2132   -0.4689    1.1601 H   0  0  0  0  0  0  0  0  0  0  0  0
    0.1415   -0.5796    0.6926 H   0  0  0  0  0  0  0  0  0  0  0  0
   -0.5411    1.9721   -2.0257 H   0  0  0  0  0  0  0  0  0  0  0  0
    5.2493   -0.1853    0.4885 H   0  0  0  0  0  0  0  0  0  0  0  0
   -3.2665    0.5917   -0.1958 H   0  0  0  0  0  0  0  0  0  0  0  0
  1  2  1  0
  1  3  1  0
  2  4  1  0
  3  5  1  0
  4  7  1  0
  4  8  1  0
  5  6  1  0
  5  9  2  3
  1 21  1  0
  1 22  1  0
  2 10  1  0
  2 23  1  0
  3 11  1  0
  3 24  1  0
  4 12  1  0
  6 13  1  0
  6 14  1  0
  6 25  1  0
  7 15  1  0
  7 16  1  0
  7 26  1  0
  8 17  1  0
  8 18  1  0
  8 19  1  0
  9 20  1  0
  9 27  1  0
M  END
