none
     RDKit          3D

 17 16  0  0  0  0  0  0  0  0999 V2000
    1.2589    1.1904    0.2760 C   0  0  0  0  0  0  0  0  0  0  0  0
    2.5331    0.3740    0.5328 C   0  0  0  0  0  0  0  0  0  0  0  0
    0.1372    0.2154   -0.1020 C   0  0  0  0  0  0  0  0  0  0  0  0
    1.4378    2.2265   -0.8400 C   0  0  0  0  0  0  0  0  0  0  0  0
    3.6147    1.1385    1.2681 C   0  0  0  0  0  0  0  0  0  0  0  0
    2.9324   -0.0025   -0.4198 H   0  0  0  0  0  0  0  0  0  0  0  0
    0.4166   -0.3664   -0.9914 H   0  0  0  0  0  0  0  0  0  0  0  0
    1.7463    1.7427   -1.7761 H   0  0  0  0  0  0  0  0  0  0  0  0
    2.1962    2.9633   -0.5781 H   0  0  0  0  0  0  0  0  0  0  0  0
    3.2534    1.5091    2.2315 H   0  0  0  0  0  0  0  0  0  0  0  0
    0.9606    1.7174    1.1963 H   0  0  0  0  0  0  0  0  0  0  0  0
    2.2828   -0.5090    1.1377 H   0  0  0  0  0  0  0  0  0  0  0  0
   -0.0512   -0.4877    0.7158 H   0  0  0  0  0  0  0  0  0  0  0  0
   -0.7909    0.7446   -0.3178 H   0  0  0  0  0  0  0  0  0  0  0  0
    0.5046    2.7574   -1.0306 H   0  0  0  0  0  0  0  0  0  0  0  0
    4.4750    0.4777    1.4552 H   0  0  0  0  0  0  0  0  0  0  0  0
    3.9741    1.9895    0.6812 H   0  0  0  0  0  0  0  0  0  0  0  0
  1  2  1  0
  1  3  1  0
  1  4  1  0
  2  5  1  0
  1 11  1  0
  2  6  1  0
  2 12  1  0
  3  7  1  0
  3 13  1  0
  3 14  1  0
  4  8  1  0
  4  9  1  0
  4 15  1  0
  5 10  1  0
  5 16  1  0
  5 17  1  0
M  END
