none
     RDKit          3D

 21 20  0  0  0  0  0  0  0  0999 V2000
   -6.6369   -0.6912   -2.1167 O   0  0  0  0  0  0  0  0  0  0  0  0
   -1.1552    0.7419   -0.3608 C   0  0  0  0  0  0  0  0  0  0  0  0
   -2.2917    0.1568    0.0197 C   0  0  0  0  0  0  0  0  0  0  0  0
   -3.6000    0.7063   -0.2510 C   0  0  0  0  0  0  0  0  0  0  0  0
   -4.7478    0.1196    0.1371 C   0  0  0  0  0  0  0  0  0  0  0  0
   -6.0979    0.7047   -0.2097 C   0  0  0  0  0  0  0  0  0  0  0  0
   -4.7774   -1.1350    0.8789 C   0  0  0  0  0  0  0  0  0  0  0  0
   -7.0590   -0.3292   -0.8050 C   0  0  0  0  0  0  0  0  0  0  0  0
   -4.0608   -1.3511    1.9893 C   0  0  0  0  0  0  0  0  0  0  0  0
   -5.7164   -1.0024   -2.0534 H   0  0  0  0  0  0  0  0  0  0  0  0
   -2.1928   -0.8199    0.4856 H   0  0  0  0  0  0  0  0  0  0  0  0
   -3.6350    1.6419   -0.8066 H   0  0  0  0  0  0  0  0  0  0  0  0
   -5.9829    1.5345   -0.9209 H   0  0  0  0  0  0  0  0  0  0  0  0
   -6.5412    1.1185    0.7039 H   0  0  0  0  0  0  0  0  0  0  0  0
   -8.0461    0.1274   -0.9073 H   0  0  0  0  0  0  0  0  0  0  0  0
   -4.0882   -2.3152    2.4831 H   0  0  0  0  0  0  0  0  0  0  0  0
   -3.4585   -0.5749    2.4560 H   0  0  0  0  0  0  0  0  0  0  0  0
   -0.1983    0.2648   -0.1679 H   0  0  0  0  0  0  0  0  0  0  0  0
   -1.1401    1.6985   -0.8710 H   0  0  0  0  0  0  0  0  0  0  0  0
   -5.3632   -1.9614    0.4825 H   0  0  0  0  0  0  0  0  0  0  0  0
   -7.1999   -1.2324   -0.2004 H   0  0  0  0  0  0  0  0  0  0  0  0
  1  8  1  0
  2  3  2  0
  3  4  1  0
  4  5  2  0
  5  6  1  0
  5  7  1  0
  6  8  1  0
  7  9  2  0
  1 10  1  0
  2 18  1  0
  2 19  1  0
  3 11  1  0
  4 12  1  0
  6 13  1  0
  6 14  1  0
  7 20  1  0
  8 15  1  0
  8 21  1  0
  9 16  1  0
  9 17  1  0
M  END
