none
     RDKit          3D

 22 21  0  0  0  0  0  0  0  0999 V2000
    0.2163    0.1894   -0.0978 C   0  0  0  0  0  0  0  0  0  0  0  0
    1.9298   -0.8382    1.3218 C   0  0  0  0  0  0  0  0  0  0  0  0
    0.4449   -0.8841    0.9663 C   0  0  0  0  0  0  0  0  0  0  0  0
   -1.1569    0.7421   -0.3651 C   0  0  0  0  0  0  0  0  0  0  0  0
   -1.1625    2.0469   -1.1307 C   0  0  0  0  0  0  0  0  0  0  0  0
   -2.3012    0.1529    0.0247 C   0  0  0  0  0  0  0  0  0  0  0  0
   -3.6149    0.7025   -0.2462 C   0  0  0  0  0  0  0  0  0  0  0  0
   -4.7394    0.1203    0.1350 C   0  0  0  0  0  0  0  0  0  0  0  0
    0.6285   -0.1702   -1.0495 H   0  0  0  0  0  0  0  0  0  0  0  0
    2.5448   -1.1409    0.4628 H   0  0  0  0  0  0  0  0  0  0  0  0
    2.1460   -1.4926    2.1521 H   0  0  0  0  0  0  0  0  0  0  0  0
    0.1614   -1.8926    0.5986 H   0  0  0  0  0  0  0  0  0  0  0  0
   -0.1493   -0.6981    1.8719 H   0  0  0  0  0  0  0  0  0  0  0  0
   -1.4300    2.8775   -0.4661 H   0  0  0  0  0  0  0  0  0  0  0  0
   -1.8587    2.0133   -1.9786 H   0  0  0  0  0  0  0  0  0  0  0  0
   -2.2696   -0.7885    0.5649 H   0  0  0  0  0  0  0  0  0  0  0  0
   -3.6878    1.6474   -0.7870 H   0  0  0  0  0  0  0  0  0  0  0  0
    0.8339    1.0478    0.1832 H   0  0  0  0  0  0  0  0  0  0  0  0
    2.2368    0.1926    1.6024 H   0  0  0  0  0  0  0  0  0  0  0  0
   -0.1806    2.2588   -1.5586 H   0  0  0  0  0  0  0  0  0  0  0  0
   -5.7016    0.5845   -0.0814 H   0  0  0  0  0  0  0  0  0  0  0  0
   -4.7598   -0.8232    0.6677 H   0  0  0  0  0  0  0  0  0  0  0  0
  1  3  1  0
  1  4  1  0
  2  3  1  0
  4  5  1  0
  4  6  2  0
  6  7  1  0
  7  8  2  0
  1  9  1  0
  1 18  1  0
  2 10  1  0
  2 11  1  0
  2 19  1  0
  3 12  1  0
  3 13  1  0
  5 14  1  0
  5 15  1  0
  5 20  1  0
  6 16  1  0
  7 17  1  0
  8 21  1  0
  8 22  1  0
M  END
