none
     RDKit          3D

 15 14  0  0  0  0  0  0  0  0999 V2000
    0.2218    0.2111   -0.1154 C   0  0  0  0  0  0  0  0  0  0  0  0
    1.9299   -0.8435    1.3256 C   0  0  0  0  0  0  0  0  0  0  0  0
    0.4527   -0.8650    0.9538 C   0  0  0  0  0  0  0  0  0  0  0  0
   -1.1668    0.7092   -0.3646 C   0  0  0  0  0  0  0  0  0  0  0  0
   -2.3077    0.1527    0.0327 C   0  0  0  0  0  0  0  0  0  0  0  0
    0.6256   -0.1682   -1.0573 H   0  0  0  0  0  0  0  0  0  0  0  0
    2.5489   -0.9806    0.4342 H   0  0  0  0  0  0  0  0  0  0  0  0
    2.1829   -1.6147    2.0568 H   0  0  0  0  0  0  0  0  0  0  0  0
    0.1795   -1.8672    0.5854 H   0  0  0  0  0  0  0  0  0  0  0  0
   -0.1483   -0.6996    1.8596 H   0  0  0  0  0  0  0  0  0  0  0  0
   -2.3207   -0.7796    0.5782 H   0  0  0  0  0  0  0  0  0  0  0  0
    0.8234    1.0755    0.1707 H   0  0  0  0  0  0  0  0  0  0  0  0
    2.1872    0.1311    1.7535 H   0  0  0  0  0  0  0  0  0  0  0  0
   -1.2044    1.6467   -0.9189 H   0  0  0  0  0  0  0  0  0  0  0  0
   -3.2604    0.6131   -0.2128 H   0  0  0  0  0  0  0  0  0  0  0  0
  1  3  1  0
  1  4  1  0
  2  3  1  0
  4  5  2  3
  1  6  1  0
  1 12  1  0
  2  7  1  0
  2  8  1  0
  2 13  1  0
  3  9  1  0
  3 10  1  0
  4 14  1  0
  5 11  1  0
  5 15  1  0
M  END
