none
     RDKit          3D

 29 28  0  0  0  0  0  0  0  0999 V2000
    1.2298    1.2805    0.2937 C   0  0  0  0  0  0  0  0  0  0  0  0
    2.4817    0.4106    0.5554 C   0  0  0  0  0  0  0  0  0  0  0  0
    0.2138    0.1840   -0.0957 C   0  0  0  0  0  0  0  0  0  0  0  0
    1.3905    2.2834   -0.8732 C   0  0  0  0  0  0  0  0  0  0  0  0
    3.6441    1.0823    1.2724 C   0  0  0  0  0  0  0  0  0  0  0  0
    4.8535    0.1381    1.4570 C   0  0  0  0  0  0  0  0  0  0  0  0
    4.0871    2.3324    0.5101 C   0  0  0  0  0  0  0  0  0  0  0  0
    5.4385   -0.4599    0.1694 C   0  0  0  0  0  0  0  0  0  0  0  0
    6.5879   -1.4378    0.4224 C   0  0  0  0  0  0  0  0  0  0  0  0
    2.8168    0.0112   -0.4101 H   0  0  0  0  0  0  0  0  0  0  0  0
    0.5387   -0.3802   -0.9795 H   0  0  0  0  0  0  0  0  0  0  0  0
    1.9864    1.8619   -1.6904 H   0  0  0  0  0  0  0  0  0  0  0  0
    1.8388    3.2265   -0.5544 H   0  0  0  0  0  0  0  0  0  0  0  0
    3.3135    1.3920    2.2734 H   0  0  0  0  0  0  0  0  0  0  0  0
    4.5459   -0.6861    2.1123 H   0  0  0  0  0  0  0  0  0  0  0  0
    5.6477    0.6715    1.9958 H   0  0  0  0  0  0  0  0  0  0  0  0
    3.4230    3.1734    0.7237 H   0  0  0  0  0  0  0  0  0  0  0  0
    5.0777    2.6572    0.8443 H   0  0  0  0  0  0  0  0  0  0  0  0
    4.1483    2.1679   -0.5713 H   0  0  0  0  0  0  0  0  0  0  0  0
    5.8005    0.3410   -0.4839 H   0  0  0  0  0  0  0  0  0  0  0  0
    4.6682   -1.0061   -0.3829 H   0  0  0  0  0  0  0  0  0  0  0  0
    6.2537   -2.2811    1.0352 H   0  0  0  0  0  0  0  0  0  0  0  0
    7.4137   -0.9403    0.9397 H   0  0  0  0  0  0  0  0  0  0  0  0
    0.8917    1.7952    1.2024 H   0  0  0  0  0  0  0  0  0  0  0  0
    2.2059   -0.4628    1.1642 H   0  0  0  0  0  0  0  0  0  0  0  0
    0.0454   -0.5222    0.7268 H   0  0  0  0  0  0  0  0  0  0  0  0
   -0.7535    0.6350   -0.3298 H   0  0  0  0  0  0  0  0  0  0  0  0
    0.4086    2.5449   -1.2824 H   0  0  0  0  0  0  0  0  0  0  0  0
    6.9660   -1.8327   -0.5267 H   0  0  0  0  0  0  0  0  0  0  0  0
  1  2  1  0
  1  3  1  0
  1  4  1  0
  2  5  1  0
  5  6  1  0
  5  7  1  0
  6  8  1  0
  8  9  1  0
  1 24  1  0
  2 10  1  0
  2 25  1  0
  3 11  1  0
  3 26  1  0
  3 27  1  0
  4 12  1  0
  4 13  1  0
  4 28  1  0
  5 14  1  0
  6 15  1  0
  6 16  1  0
  7 17  1  0
  7 18  1  0
  7 19  1  0
  8 20  1  0
  8 21  1  0
  9 22  1  0
  9 23  1  0
  9 29  1  0
M  END
