none
     RDKit          3D

 21 21  0  0  0  0  0  0  0  0999 V2000
    1.2363    1.2679    0.2723 C   0  0  0  0  0  0  0  0  0  0  0  0
    2.4786    0.4055    0.5488 C   0  0  0  0  0  0  0  0  0  0  0  0
    0.2113    0.1886   -0.0813 C   0  0  0  0  0  0  0  0  0  0  0  0
    1.9299   -0.8122    1.3116 C   0  0  0  0  0  0  0  0  0  0  0  0
    0.4430   -0.8943    0.9608 C   0  0  0  0  0  0  0  0  0  0  0  0
    1.3982    2.2781   -0.8558 C   0  0  0  0  0  0  0  0  0  0  0  0
    3.6294    1.0846    1.2747 C   0  0  0  0  0  0  0  0  0  0  0  0
    2.8657    0.0506   -0.4184 H   0  0  0  0  0  0  0  0  0  0  0  0
    0.4293   -0.2204   -1.0851 H   0  0  0  0  0  0  0  0  0  0  0  0
    2.4564   -1.7246    1.0068 H   0  0  0  0  0  0  0  0  0  0  0  0
    2.0540   -0.7124    2.3954 H   0  0  0  0  0  0  0  0  0  0  0  0
    0.1526   -1.8861    0.6030 H   0  0  0  0  0  0  0  0  0  0  0  0
   -0.1600   -0.6819    1.8561 H   0  0  0  0  0  0  0  0  0  0  0  0
    1.7262    1.7835   -1.7815 H   0  0  0  0  0  0  0  0  0  0  0  0
    2.1334    3.0458   -0.6119 H   0  0  0  0  0  0  0  0  0  0  0  0
    3.3242    1.4694    2.2514 H   0  0  0  0  0  0  0  0  0  0  0  0
    0.9168    1.7953    1.1922 H   0  0  0  0  0  0  0  0  0  0  0  0
   -0.8146    0.5521   -0.0882 H   0  0  0  0  0  0  0  0  0  0  0  0
    0.4483    2.7788   -1.0777 H   0  0  0  0  0  0  0  0  0  0  0  0
    4.4512    0.3740    1.4380 H   0  0  0  0  0  0  0  0  0  0  0  0
    4.0290    1.9174    0.6880 H   0  0  0  0  0  0  0  0  0  0  0  0
  1  2  1  0
  1  3  1  0
  1  6  1  0
  2  4  1  0
  2  7  1  0
  3  5  1  0
  4  5  1  0
  1 17  1  0
  2  8  1  0
  3  9  1  0
  3 18  1  0
  4 10  1  0
  4 11  1  0
  5 12  1  0
  5 13  1  0
  6 14  1  0
  6 15  1  0
  6 19  1  0
  7 16  1  0
  7 20  1  0
  7 21  1  0
M  END
