none
     RDKit          3D

 22 21  0  0  0  0  0  0  0  0999 V2000
    1.2288    1.2858    0.2996 C   0  0  0  0  0  0  0  0  0  0  0  0
    0.2185    0.1817   -0.0942 C   0  0  0  0  0  0  0  0  0  0  0  0
   -1.1549    0.7430   -0.3633 C   0  0  0  0  0  0  0  0  0  0  0  0
    0.8146    2.0634    1.5704 C   0  0  0  0  0  0  0  0  0  0  0  0
   -1.1661    2.0456   -1.1330 C   0  0  0  0  0  0  0  0  0  0  0  0
   -2.2980    0.1547    0.0256 C   0  0  0  0  0  0  0  0  0  0  0  0
   -3.6037    0.7058   -0.2500 C   0  0  0  0  0  0  0  0  0  0  0  0
   -4.7449    0.1213    0.1352 C   0  0  0  0  0  0  0  0  0  0  0  0
    0.5824   -0.3181   -1.0006 H   0  0  0  0  0  0  0  0  0  0  0  0
   -0.0994    2.6455    1.4336 H   0  0  0  0  0  0  0  0  0  0  0  0
    0.6601    1.3728    2.4058 H   0  0  0  0  0  0  0  0  0  0  0  0
    1.6125    2.7591    1.8507 H   0  0  0  0  0  0  0  0  0  0  0  0
   -1.1581    2.9122   -0.4660 H   0  0  0  0  0  0  0  0  0  0  0  0
   -2.0198    2.1376   -1.8093 H   0  0  0  0  0  0  0  0  0  0  0  0
   -2.2587   -0.7852    0.5718 H   0  0  0  0  0  0  0  0  0  0  0  0
   -3.6976    1.6570   -0.7646 H   0  0  0  0  0  0  0  0  0  0  0  0
    2.1927    0.8016    0.4985 H   0  0  0  0  0  0  0  0  0  0  0  0
    1.4138    1.9903   -0.5196 H   0  0  0  0  0  0  0  0  0  0  0  0
    0.1811   -0.5742    0.6997 H   0  0  0  0  0  0  0  0  0  0  0  0
   -0.3037    2.1088   -1.8044 H   0  0  0  0  0  0  0  0  0  0  0  0
   -5.7029    0.5843   -0.0818 H   0  0  0  0  0  0  0  0  0  0  0  0
   -4.7574   -0.8225    0.6705 H   0  0  0  0  0  0  0  0  0  0  0  0
  1  2  1  0
  1  4  1  0
  2  3  1  0
  3  5  1  0
  3  6  2  0
  6  7  1  0
  7  8  2  0
  1 17  1  0
  1 18  1  0
  2  9  1  0
  2 19  1  0
  4 10  1  0
  4 11  1  0
  4 12  1  0
  5 13  1  0
  5 14  1  0
  5 20  1  0
  6 15  1  0
  7 16  1  0
  8 21  1  0
  8 22  1  0
M  END
