none
     RDKit          3D

 29 28  0  0  0  0  0  0  0  0999 V2000
    1.2305    1.2876    0.2956 C   0  0  0  0  0  0  0  0  0  0  0  0
    2.4780    0.4086    0.5528 C   0  0  0  0  0  0  0  0  0  0  0  0
    1.3941    2.2834   -0.8719 C   0  0  0  0  0  0  0  0  0  0  0  0
    3.6429    1.0796    1.2732 C   0  0  0  0  0  0  0  0  0  0  0  0
    4.8534    0.1396    1.4573 C   0  0  0  0  0  0  0  0  0  0  0  0
    5.4371   -0.4586    0.1696 C   0  0  0  0  0  0  0  0  0  0  0  0
    6.5894   -1.4384    0.4215 C   0  0  0  0  0  0  0  0  0  0  0  0
    7.2213   -1.9849   -0.8723 C   0  0  0  0  0  0  0  0  0  0  0  0
    7.7447   -0.8772   -1.7860 C   0  0  0  0  0  0  0  0  0  0  0  0
    2.8010    0.0108   -0.4150 H   0  0  0  0  0  0  0  0  0  0  0  0
    1.6836    1.7596   -1.7916 H   0  0  0  0  0  0  0  0  0  0  0  0
    2.1619    3.0298   -0.6395 H   0  0  0  0  0  0  0  0  0  0  0  0
    3.3115    1.4276    2.2595 H   0  0  0  0  0  0  0  0  0  0  0  0
    4.5574   -0.6783    2.1248 H   0  0  0  0  0  0  0  0  0  0  0  0
    5.6420    0.6961    1.9803 H   0  0  0  0  0  0  0  0  0  0  0  0
    5.7694    0.3724   -0.4624 H   0  0  0  0  0  0  0  0  0  0  0  0
    4.6638   -0.9950   -0.3865 H   0  0  0  0  0  0  0  0  0  0  0  0
    6.2277   -2.2824    1.0206 H   0  0  0  0  0  0  0  0  0  0  0  0
    7.3673   -0.9398    1.0149 H   0  0  0  0  0  0  0  0  0  0  0  0
    8.0505   -2.6519   -0.6042 H   0  0  0  0  0  0  0  0  0  0  0  0
    6.9275   -0.3014   -2.2315 H   0  0  0  0  0  0  0  0  0  0  0  0
    8.3212   -1.3154   -2.6065 H   0  0  0  0  0  0  0  0  0  0  0  0
    8.4010   -0.1924   -1.2398 H   0  0  0  0  0  0  0  0  0  0  0  0
    0.3874    0.6268    0.0531 H   0  0  0  0  0  0  0  0  0  0  0  0
    0.9625    1.8315    1.2064 H   0  0  0  0  0  0  0  0  0  0  0  0
    2.1595   -0.4536    1.1521 H   0  0  0  0  0  0  0  0  0  0  0  0
    0.4493    2.8096   -1.0526 H   0  0  0  0  0  0  0  0  0  0  0  0
    3.9646    1.9640    0.7109 H   0  0  0  0  0  0  0  0  0  0  0  0
    6.4868   -2.5866   -1.4185 H   0  0  0  0  0  0  0  0  0  0  0  0
  1  2  1  0
  1  3  1  0
  2  4  1  0
  4  5  1  0
  5  6  1  0
  6  7  1  0
  7  8  1  0
  8  9  1  0
  1 24  1  0
  1 25  1  0
  2 10  1  0
  2 26  1  0
  3 11  1  0
  3 12  1  0
  3 27  1  0
  4 13  1  0
  4 28  1  0
  5 14  1  0
  5 15  1  0
  6 16  1  0
  6 17  1  0
  7 18  1  0
  7 19  1  0
  8 20  1  0
  8 29  1  0
  9 21  1  0
  9 22  1  0
  9 23  1  0
M  END
