none
     RDKit          3D

 15 14  0  0  0  0  0  0  0  0999 V2000
    0.2559    0.1989   -0.1027 C   0  0  0  0  0  0  0  0  0  0  0  0
    0.4002   -0.8941    0.9508 C   0  0  0  0  0  0  0  0  0  0  0  0
   -1.1372    0.7395   -0.3587 C   0  0  0  0  0  0  0  0  0  0  0  0
   -1.1718    2.0319   -1.1314 C   0  0  0  0  0  0  0  0  0  0  0  0
   -2.2737    0.1499    0.0467 C   0  0  0  0  0  0  0  0  0  0  0  0
    0.6588   -0.1720   -1.0512 H   0  0  0  0  0  0  0  0  0  0  0  0
   -0.1337   -1.8028    0.6635 H   0  0  0  0  0  0  0  0  0  0  0  0
    0.0273   -0.5559    1.9218 H   0  0  0  0  0  0  0  0  0  0  0  0
   -0.6553    2.8189   -0.5705 H   0  0  0  0  0  0  0  0  0  0  0  0
   -2.1962    2.3723   -1.3190 H   0  0  0  0  0  0  0  0  0  0  0  0
   -2.2854   -0.7838    0.5961 H   0  0  0  0  0  0  0  0  0  0  0  0
    0.8939    1.0327    0.2050 H   0  0  0  0  0  0  0  0  0  0  0  0
    1.4611   -1.1563    1.0734 H   0  0  0  0  0  0  0  0  0  0  0  0
   -0.6751    1.9075   -2.0995 H   0  0  0  0  0  0  0  0  0  0  0  0
   -3.2434    0.5885   -0.1706 H   0  0  0  0  0  0  0  0  0  0  0  0
  1  2  1  0
  1  3  1  0
  3  4  1  0
  3  5  2  3
  1  6  1  0
  1 12  1  0
  2  7  1  0
  2  8  1  0
  2 13  1  0
  4  9  1  0
  4 10  1  0
  4 14  1  0
  5 11  1  0
  5 15  1  0
M  END
