none
     RDKit          3D

 12 11  0  0  0  0  0  0  0  0999 V2000
   -5.7435   -2.1629    0.3390 C   0  0  0  0  0  0  0  0  0  0  0  0
   -7.1452   -1.6287    0.0609 C   0  0  0  0  0  0  0  0  0  0  0  0
   -4.6979    0.1081    0.1705 C   0  0  0  0  0  0  0  0  0  0  0  0
   -4.8021   -1.0758    0.7867 C   0  0  0  0  0  0  0  0  0  0  0  0
   -5.3389   -2.6517   -0.5552 H   0  0  0  0  0  0  0  0  0  0  0  0
   -5.7998   -2.9166    1.1209 H   0  0  0  0  0  0  0  0  0  0  0  0
   -7.8438   -2.4603   -0.1205 H   0  0  0  0  0  0  0  0  0  0  0  0
   -7.5242   -1.0517    0.9109 H   0  0  0  0  0  0  0  0  0  0  0  0
   -7.1642   -0.9901   -0.8230 H   0  0  0  0  0  0  0  0  0  0  0  0
   -4.0164    0.8854    0.5326 H   0  0  0  0  0  0  0  0  0  0  0  0
   -5.2825    0.3459   -0.7292 H   0  0  0  0  0  0  0  0  0  0  0  0
   -4.1854   -1.2825    1.6711 H   0  0  0  0  0  0  0  0  0  0  0  0
  1  2  1  0
  1  4  1  0
  3  4  2  3
  1  5  1  0
  1  6  1  0
  2  7  1  0
  2  8  1  0
  2  9  1  0
  3 10  1  0
  3 11  1  0
  4 12  1  0
M  END
