none
     RDKit          3D

 23 22  0  0  0  0  0  0  0  0999 V2000
    1.2261    1.2842    0.2957 C   0  0  0  0  0  0  0  0  0  0  0  0
    0.2197    0.1822   -0.0951 C   0  0  0  0  0  0  0  0  0  0  0  0
   -1.1536    0.7423   -0.3615 C   0  0  0  0  0  0  0  0  0  0  0  0
   -2.2933    0.1565    0.0220 C   0  0  0  0  0  0  0  0  0  0  0  0
   -3.6013    0.7068   -0.2513 C   0  0  0  0  0  0  0  0  0  0  0  0
   -4.7438    0.1200    0.1367 C   0  0  0  0  0  0  0  0  0  0  0  0
   -4.7850   -1.1352    0.8766 C   0  0  0  0  0  0  0  0  0  0  0  0
   -5.7282   -2.1733    0.3295 C   0  0  0  0  0  0  0  0  0  0  0  0
   -4.0593   -1.3507    1.9884 C   0  0  0  0  0  0  0  0  0  0  0  0
    0.5796   -0.3099   -1.0062 H   0  0  0  0  0  0  0  0  0  0  0  0
   -2.2019   -0.8115    0.5037 H   0  0  0  0  0  0  0  0  0  0  0  0
   -3.6519    1.6390   -0.8087 H   0  0  0  0  0  0  0  0  0  0  0  0
   -5.4366   -2.4587   -0.6874 H   0  0  0  0  0  0  0  0  0  0  0  0
   -5.7337   -3.0835    0.9401 H   0  0  0  0  0  0  0  0  0  0  0  0
   -4.1148   -2.2937    2.5203 H   0  0  0  0  0  0  0  0  0  0  0  0
   -3.4260   -0.5851    2.4287 H   0  0  0  0  0  0  0  0  0  0  0  0
    2.2138    0.8450    0.4737 H   0  0  0  0  0  0  0  0  0  0  0  0
    1.3226    2.0294   -0.5025 H   0  0  0  0  0  0  0  0  0  0  0  0
    0.9080    1.7976    1.2098 H   0  0  0  0  0  0  0  0  0  0  0  0
    0.1889   -0.5728    0.6999 H   0  0  0  0  0  0  0  0  0  0  0  0
   -1.1903    1.6828   -0.9052 H   0  0  0  0  0  0  0  0  0  0  0  0
   -5.6991    0.5676   -0.1320 H   0  0  0  0  0  0  0  0  0  0  0  0
   -6.7538   -1.7875    0.3022 H   0  0  0  0  0  0  0  0  0  0  0  0
  1  2  1  0
  2  3  1  0
  3  4  2  0
  4  5  1  0
  5  6  2  0
  6  7  1  0
  7  8  1  0
  7  9  2  0
  1 17  1  0
  1 18  1  0
  1 19  1  0
  2 10  1  0
  2 20  1  0
  3 21  1  0
  4 11  1  0
  5 12  1  0
  6 22  1  0
  8 13  1  0
  8 14  1  0
  8 23  1  0
  9 15  1  0
  9 16  1  0
M  END
