none
     RDKit          3D

 16 15  0  0  0  0  0  0  0  0999 V2000
   -2.3361    0.1813    0.0108 C   0  0  0  0  0  0  0  0  0  0  0  0
   -3.5243    0.7065   -0.2448 C   0  0  0  0  0  0  0  0  0  0  0  0
   -4.7869    0.0585    0.1744 C   0  0  0  0  0  0  0  0  0  0  0  0
   -6.0944    0.7101   -0.2171 C   0  0  0  0  0  0  0  0  0  0  0  0
   -4.7794   -1.1004    0.8397 C   0  0  0  0  0  0  0  0  0  0  0  0
   -5.7334   -2.1754    0.3399 C   0  0  0  0  0  0  0  0  0  0  0  0
   -2.1320   -0.7684    0.5467 H   0  0  0  0  0  0  0  0  0  0  0  0
   -3.6225    1.6460   -0.7971 H   0  0  0  0  0  0  0  0  0  0  0  0
   -6.0301    1.8039   -0.2589 H   0  0  0  0  0  0  0  0  0  0  0  0
   -6.8522    0.4672    0.5535 H   0  0  0  0  0  0  0  0  0  0  0  0
   -5.6901   -2.2346   -0.7628 H   0  0  0  0  0  0  0  0  0  0  0  0
   -5.4372   -3.1588    0.7188 H   0  0  0  0  0  0  0  0  0  0  0  0
   -1.4326    0.7023   -0.3270 H   0  0  0  0  0  0  0  0  0  0  0  0
   -6.4484    0.3445   -1.1895 H   0  0  0  0  0  0  0  0  0  0  0  0
   -3.8756   -1.5573    1.2879 H   0  0  0  0  0  0  0  0  0  0  0  0
   -6.7543   -1.9757    0.6563 H   0  0  0  0  0  0  0  0  0  0  0  0
  1  2  2  0
  2  3  1  0
  3  4  1  0
  3  5  2  0
  5  6  1  0
  1  7  1  0
  1 13  1  0
  2  8  1  0
  4  9  1  0
  4 10  1  0
  4 14  1  0
  5 15  1  0
  6 11  1  0
  6 12  1  0
  6 16  1  0
M  END
