none
     RDKit          3D

 29 28  0  0  0  0  0  0  0  0999 V2000
    1.2305    1.2787    0.2974 C   0  0  0  0  0  0  0  0  0  0  0  0
    2.4819    0.4106    0.5546 C   0  0  0  0  0  0  0  0  0  0  0  0
    0.2146    0.1848   -0.0962 C   0  0  0  0  0  0  0  0  0  0  0  0
    3.6428    1.0803    1.2732 C   0  0  0  0  0  0  0  0  0  0  0  0
    4.8533    0.1394    1.4574 C   0  0  0  0  0  0  0  0  0  0  0  0
    5.4370   -0.4588    0.1696 C   0  0  0  0  0  0  0  0  0  0  0  0
    6.5893   -1.4385    0.4214 C   0  0  0  0  0  0  0  0  0  0  0  0
    7.2211   -1.9850   -0.8725 C   0  0  0  0  0  0  0  0  0  0  0  0
    7.7447   -0.8773   -1.7861 C   0  0  0  0  0  0  0  0  0  0  0  0
    2.8191    0.0445   -0.4223 H   0  0  0  0  0  0  0  0  0  0  0  0
    0.5506   -0.3876   -0.9693 H   0  0  0  0  0  0  0  0  0  0  0  0
    3.3133    1.4313    2.2591 H   0  0  0  0  0  0  0  0  0  0  0  0
    4.5570   -0.6793    2.1244 H   0  0  0  0  0  0  0  0  0  0  0  0
    5.6415    0.6952    1.9799 H   0  0  0  0  0  0  0  0  0  0  0  0
    5.7701    0.3724   -0.4598 H   0  0  0  0  0  0  0  0  0  0  0  0
    4.6638   -0.9973   -0.3863 H   0  0  0  0  0  0  0  0  0  0  0  0
    6.2275   -2.2826    1.0214 H   0  0  0  0  0  0  0  0  0  0  0  0
    7.3663   -0.9389    1.0123 H   0  0  0  0  0  0  0  0  0  0  0  0
    8.0503   -2.6505   -0.6040 H   0  0  0  0  0  0  0  0  0  0  0  0
    6.9279   -0.3022   -2.2326 H   0  0  0  0  0  0  0  0  0  0  0  0
    8.3200   -1.3151   -2.6080 H   0  0  0  0  0  0  0  0  0  0  0  0
    8.4009   -0.1921   -1.2398 H   0  0  0  0  0  0  0  0  0  0  0  0
    1.3939    1.9956   -0.5154 H   0  0  0  0  0  0  0  0  0  0  0  0
    0.9056    1.8053    1.2008 H   0  0  0  0  0  0  0  0  0  0  0  0
    2.2114   -0.4763    1.1450 H   0  0  0  0  0  0  0  0  0  0  0  0
    0.0251   -0.5107    0.7308 H   0  0  0  0  0  0  0  0  0  0  0  0
   -0.7385    0.6524   -0.3541 H   0  0  0  0  0  0  0  0  0  0  0  0
    3.9593    1.9634    0.7078 H   0  0  0  0  0  0  0  0  0  0  0  0
    6.4869   -2.5884   -1.4189 H   0  0  0  0  0  0  0  0  0  0  0  0
  1  2  1  0
  1  3  1  0
  2  4  1  0
  4  5  1  0
  5  6  1  0
  6  7  1  0
  7  8  1  0
  8  9  1  0
  1 23  1  0
  1 24  1  0
  2 10  1  0
  2 25  1  0
  3 11  1  0
  3 26  1  0
  3 27  1  0
  4 12  1  0
  4 28  1  0
  5 13  1  0
  5 14  1  0
  6 15  1  0
  6 16  1  0
  7 17  1  0
  7 18  1  0
  8 19  1  0
  8 29  1  0
  9 20  1  0
  9 21  1  0
  9 22  1  0
M  END
