none
     RDKit          3D

 22 21  0  0  0  0  0  0  0  0999 V2000
    1.2221    1.3021    0.2715 C   0  0  0  0  0  0  0  0  0  0  0  0
    0.2450    0.1837   -0.0935 C   0  0  0  0  0  0  0  0  0  0  0  0
    0.4141   -0.9105    0.9671 C   0  0  0  0  0  0  0  0  0  0  0  0
    1.4035    2.2867   -0.8647 C   0  0  0  0  0  0  0  0  0  0  0  0
   -1.1609    0.7269   -0.3547 C   0  0  0  0  0  0  0  0  0  0  0  0
   -2.3010    0.1549    0.0331 C   0  0  0  0  0  0  0  0  0  0  0  0
   -3.6066    0.7050   -0.2530 C   0  0  0  0  0  0  0  0  0  0  0  0
   -4.7409    0.1230    0.1350 C   0  0  0  0  0  0  0  0  0  0  0  0
    0.5575   -0.2525   -1.0477 H   0  0  0  0  0  0  0  0  0  0  0  0
   -0.1614   -1.7937    0.7362 H   0  0  0  0  0  0  0  0  0  0  0  0
    0.1357   -0.5506    1.9621 H   0  0  0  0  0  0  0  0  0  0  0  0
    1.6683    1.7698   -1.8000 H   0  0  0  0  0  0  0  0  0  0  0  0
    2.1992    2.9886   -0.6318 H   0  0  0  0  0  0  0  0  0  0  0  0
   -2.2767   -0.7707    0.5959 H   0  0  0  0  0  0  0  0  0  0  0  0
   -3.6523    1.6426   -0.8039 H   0  0  0  0  0  0  0  0  0  0  0  0
    2.2146    0.8585    0.5080 H   0  0  0  0  0  0  0  0  0  0  0  0
    0.8986    1.8266    1.1903 H   0  0  0  0  0  0  0  0  0  0  0  0
    1.4795   -1.2213    1.0151 H   0  0  0  0  0  0  0  0  0  0  0  0
    0.4953    2.8820   -1.0487 H   0  0  0  0  0  0  0  0  0  0  0  0
   -1.2236    1.6423   -0.9597 H   0  0  0  0  0  0  0  0  0  0  0  0
   -5.7028    0.5777   -0.0964 H   0  0  0  0  0  0  0  0  0  0  0  0
   -4.7597   -0.8124    0.6873 H   0  0  0  0  0  0  0  0  0  0  0  0
  1  2  1  0
  1  4  1  0
  2  3  1  0
  2  5  1  0
  5  6  2  0
  6  7  1  0
  7  8  2  0
  1 16  1  0
  1 17  1  0
  2  9  1  0
  3 10  1  0
  3 11  1  0
  3 18  1  0
  4 12  1  0
  4 13  1  0
  4 19  1  0
  5 20  1  0
  6 14  1  0
  7 15  1  0
  8 21  1  0
  8 22  1  0
M  END
