none
     RDKit          3D

 17 16  0  0  0  0  0  0  0  0999 V2000
    3.6457    1.0793    1.2727 C   0  0  0  0  0  0  0  0  0  0  0  0
    4.8533    0.1389    1.4576 C   0  0  0  0  0  0  0  0  0  0  0  0
    4.0824    2.3315    0.5084 C   0  0  0  0  0  0  0  0  0  0  0  0
    5.4374   -0.4593    0.1696 C   0  0  0  0  0  0  0  0  0  0  0  0
    6.5875   -1.4381    0.4221 C   0  0  0  0  0  0  0  0  0  0  0  0
    3.2586    1.3699    2.2573 H   0  0  0  0  0  0  0  0  0  0  0  0
    4.5365   -0.6849    2.1079 H   0  0  0  0  0  0  0  0  0  0  0  0
    5.6456    0.6716    1.9989 H   0  0  0  0  0  0  0  0  0  0  0  0
    3.2568    3.0485    0.4689 H   0  0  0  0  0  0  0  0  0  0  0  0
    4.9310    2.8200    0.9991 H   0  0  0  0  0  0  0  0  0  0  0  0
    4.3623    2.0961   -0.5229 H   0  0  0  0  0  0  0  0  0  0  0  0
    5.8098    0.3398   -0.4798 H   0  0  0  0  0  0  0  0  0  0  0  0
    4.6448   -0.9793   -0.3802 H   0  0  0  0  0  0  0  0  0  0  0  0
    6.2529   -2.2811    1.0348 H   0  0  0  0  0  0  0  0  0  0  0  0
    7.4141   -0.9413    0.9395 H   0  0  0  0  0  0  0  0  0  0  0  0
    2.8396    0.5686    0.7335 H   0  0  0  0  0  0  0  0  0  0  0  0
    6.9644   -1.8328   -0.5273 H   0  0  0  0  0  0  0  0  0  0  0  0
  1  2  1  0
  1  3  1  0
  2  4  1  0
  4  5  1  0
  1  6  1  0
  1 16  1  0
  2  7  1  0
  2  8  1  0
  3  9  1  0
  3 10  1  0
  3 11  1  0
  4 12  1  0
  4 13  1  0
  5 14  1  0
  5 15  1  0
  5 17  1  0
M  END
