none
     RDKit          3D

 17 16  0  0  0  0  0  0  0  0999 V2000
    1.2551    1.2252    0.3231 C   0  0  0  0  0  0  0  0  0  0  0  0
    2.5255    0.4062    0.5677 C   0  0  0  0  0  0  0  0  0  0  0  0
    0.1867    0.2137   -0.0952 C   0  0  0  0  0  0  0  0  0  0  0  0
    3.6532    1.0992    1.2744 C   0  0  0  0  0  0  0  0  0  0  0  0
    0.8111    2.0355    1.5411 C   0  0  0  0  0  0  0  0  0  0  0  0
    2.8556    0.0366   -0.4077 H   0  0  0  0  0  0  0  0  0  0  0  0
    0.5465   -0.3755   -0.9506 H   0  0  0  0  0  0  0  0  0  0  0  0
    3.3834    1.3324    2.3051 H   0  0  0  0  0  0  0  0  0  0  0  0
   -0.1592    2.5471    1.4034 H   0  0  0  0  0  0  0  0  0  0  0  0
    0.7190    1.4011    2.4256 H   0  0  0  0  0  0  0  0  0  0  0  0
    1.5337    2.8320    1.7993 H   0  0  0  0  0  0  0  0  0  0  0  0
    1.3959    1.9461   -0.5030 H   0  0  0  0  0  0  0  0  0  0  0  0
    2.2327   -0.4693    1.1459 H   0  0  0  0  0  0  0  0  0  0  0  0
    0.0122   -0.4971    0.7150 H   0  0  0  0  0  0  0  0  0  0  0  0
   -0.7732    0.6706   -0.3740 H   0  0  0  0  0  0  0  0  0  0  0  0
    4.5019    0.4138    1.3049 H   0  0  0  0  0  0  0  0  0  0  0  0
    3.9468    2.0056    0.7537 H   0  0  0  0  0  0  0  0  0  0  0  0
  1  2  1  0
  1  3  1  0
  1  5  1  0
  2  4  1  0
  1 12  1  0
  2  6  1  0
  2 13  1  0
  3  7  1  0
  3 14  1  0
  3 15  1  0
  4  8  1  0
  4 16  1  0
  4 17  1  0
  5  9  1  0
  5 10  1  0
  5 11  1  0
M  END
