none
     RDKit          3D

 20 19  0  0  0  0  0  0  0  0999 V2000
    1.2344    1.2902    0.2963 C   0  0  0  0  0  0  0  0  0  0  0  0
    2.4686    0.4012    0.5514 C   0  0  0  0  0  0  0  0  0  0  0  0
    1.9348   -0.8187    1.3125 C   0  0  0  0  0  0  0  0  0  0  0  0
    3.6440    1.0829    1.2761 C   0  0  0  0  0  0  0  0  0  0  0  0
    4.8515    0.1421    1.4555 C   0  0  0  0  0  0  0  0  0  0  0  0
    4.0862    2.3320    0.5090 C   0  0  0  0  0  0  0  0  0  0  0  0
    2.8273    0.0545   -0.4261 H   0  0  0  0  0  0  0  0  0  0  0  0
    2.6925   -1.5985    1.4036 H   0  0  0  0  0  0  0  0  0  0  0  0
    1.6005   -0.5439    2.3196 H   0  0  0  0  0  0  0  0  0  0  0  0
    3.3154    1.3976    2.2736 H   0  0  0  0  0  0  0  0  0  0  0  0
    4.6142   -0.6932    2.1221 H   0  0  0  0  0  0  0  0  0  0  0  0
    5.6959    0.6789    1.9032 H   0  0  0  0  0  0  0  0  0  0  0  0
    3.3036    3.0979    0.5052 H   0  0  0  0  0  0  0  0  0  0  0  0
    4.9669    2.7813    0.9772 H   0  0  0  0  0  0  0  0  0  0  0  0
    4.3413    2.0943   -0.5300 H   0  0  0  0  0  0  0  0  0  0  0  0
    0.4277    0.7135   -0.1803 H   0  0  0  0  0  0  0  0  0  0  0  0
    1.4679    2.1170   -0.3764 H   0  0  0  0  0  0  0  0  0  0  0  0
    0.8456    1.7055    1.2326 H   0  0  0  0  0  0  0  0  0  0  0  0
    1.0833   -1.2686    0.7848 H   0  0  0  0  0  0  0  0  0  0  0  0
    5.1827   -0.2672    0.4946 H   0  0  0  0  0  0  0  0  0  0  0  0
  1  2  1  0
  2  3  1  0
  2  4  1  0
  4  5  1  0
  4  6  1  0
  1 16  1  0
  1 17  1  0
  1 18  1  0
  2  7  1  0
  3  8  1  0
  3  9  1  0
  3 19  1  0
  4 10  1  0
  5 11  1  0
  5 12  1  0
  5 20  1  0
  6 13  1  0
  6 14  1  0
  6 15  1  0
M  END
