none
     RDKit          3D

 23 22  0  0  0  0  0  0  0  0999 V2000
    1.2305    1.2907    0.2935 C   0  0  0  0  0  0  0  0  0  0  0  0
    2.4744    0.4052    0.5523 C   0  0  0  0  0  0  0  0  0  0  0  0
    1.9332   -0.8180    1.3131 C   0  0  0  0  0  0  0  0  0  0  0  0
    1.3906    2.2833   -0.8732 C   0  0  0  0  0  0  0  0  0  0  0  0
    3.6435    1.0810    1.2751 C   0  0  0  0  0  0  0  0  0  0  0  0
    4.8524    0.1412    1.4555 C   0  0  0  0  0  0  0  0  0  0  0  0
    4.0880    2.3318    0.5102 C   0  0  0  0  0  0  0  0  0  0  0  0
    2.8331    0.0373   -0.4190 H   0  0  0  0  0  0  0  0  0  0  0  0
    2.6965   -1.5921    1.4193 H   0  0  0  0  0  0  0  0  0  0  0  0
    1.5864   -0.5396    2.3155 H   0  0  0  0  0  0  0  0  0  0  0  0
    1.9538    1.8451   -1.7030 H   0  0  0  0  0  0  0  0  0  0  0  0
    1.8587    3.2231   -0.5732 H   0  0  0  0  0  0  0  0  0  0  0  0
    3.3207    1.3935    2.2764 H   0  0  0  0  0  0  0  0  0  0  0  0
    4.6113   -0.7002    2.1118 H   0  0  0  0  0  0  0  0  0  0  0  0
    5.6928    0.6753    1.9138 H   0  0  0  0  0  0  0  0  0  0  0  0
    3.4200    3.1727    0.7140 H   0  0  0  0  0  0  0  0  0  0  0  0
    5.0733    2.6618    0.8516 H   0  0  0  0  0  0  0  0  0  0  0  0
    4.1630    2.1568   -0.5694 H   0  0  0  0  0  0  0  0  0  0  0  0
    0.3751    0.6503    0.0332 H   0  0  0  0  0  0  0  0  0  0  0  0
    0.9443    1.8323    1.2037 H   0  0  0  0  0  0  0  0  0  0  0  0
    1.0962   -1.2843    0.7785 H   0  0  0  0  0  0  0  0  0  0  0  0
    0.3977    2.5502   -1.2514 H   0  0  0  0  0  0  0  0  0  0  0  0
    5.1899   -0.2578    0.4928 H   0  0  0  0  0  0  0  0  0  0  0  0
  1  2  1  0
  1  4  1  0
  2  3  1  0
  2  5  1  0
  5  6  1  0
  5  7  1  0
  1 19  1  0
  1 20  1  0
  2  8  1  0
  3  9  1  0
  3 10  1  0
  3 21  1  0
  4 11  1  0
  4 12  1  0
  4 22  1  0
  5 13  1  0
  6 14  1  0
  6 15  1  0
  6 23  1  0
  7 16  1  0
  7 17  1  0
  7 18  1  0
M  END
