none
     RDKit          3D

 20 19  0  0  0  0  0  0  0  0999 V2000
    1.2301    1.2990    0.3050 C   0  0  0  0  0  0  0  0  0  0  0  0
    2.4755    0.4054    0.5489 C   0  0  0  0  0  0  0  0  0  0  0  0
    1.3992    2.2762   -0.8667 C   0  0  0  0  0  0  0  0  0  0  0  0
    3.6530    1.0809    1.2763 C   0  0  0  0  0  0  0  0  0  0  0  0
    0.8112    2.0588    1.5631 C   0  0  0  0  0  0  0  0  0  0  0  0
    4.8426    0.1451    1.4523 C   0  0  0  0  0  0  0  0  0  0  0  0
    2.8264    0.0022   -0.4045 H   0  0  0  0  0  0  0  0  0  0  0  0
    1.6636    1.7528   -1.7919 H   0  0  0  0  0  0  0  0  0  0  0  0
    2.1775    3.0186   -0.6602 H   0  0  0  0  0  0  0  0  0  0  0  0
    3.3338    1.4162    2.2703 H   0  0  0  0  0  0  0  0  0  0  0  0
   -0.1578    2.5478    1.4168 H   0  0  0  0  0  0  0  0  0  0  0  0
    0.7173    1.3853    2.4244 H   0  0  0  0  0  0  0  0  0  0  0  0
    1.5357    2.8470    1.8227 H   0  0  0  0  0  0  0  0  0  0  0  0
    4.5733   -0.7407    2.0411 H   0  0  0  0  0  0  0  0  0  0  0  0
    5.6589    0.6626    1.9799 H   0  0  0  0  0  0  0  0  0  0  0  0
    0.4064    0.6112    0.0304 H   0  0  0  0  0  0  0  0  0  0  0  0
    2.1642   -0.4554    1.1530 H   0  0  0  0  0  0  0  0  0  0  0  0
    0.4588    2.8244   -1.0552 H   0  0  0  0  0  0  0  0  0  0  0  0
    3.9683    1.9637    0.7164 H   0  0  0  0  0  0  0  0  0  0  0  0
    5.2318   -0.1919    0.4845 H   0  0  0  0  0  0  0  0  0  0  0  0
  1  2  1  0
  1  3  1  0
  1  5  1  0
  2  4  1  0
  4  6  1  0
  1 16  1  0
  2  7  1  0
  2 17  1  0
  3  8  1  0
  3  9  1  0
  3 18  1  0
  4 10  1  0
  4 19  1  0
  5 11  1  0
  5 12  1  0
  5 13  1  0
  6 14  1  0
  6 15  1  0
  6 20  1  0
M  END
