none
     RDKit          3D

 26 25  0  0  0  0  0  0  0  0999 V2000
    1.2356    1.2899    0.2938 C   0  0  0  0  0  0  0  0  0  0  0  0
    2.4721    0.4024    0.5512 C   0  0  0  0  0  0  0  0  0  0  0  0
    1.9363   -0.8191    1.3145 C   0  0  0  0  0  0  0  0  0  0  0  0
    1.3920    2.2835   -0.8710 C   0  0  0  0  0  0  0  0  0  0  0  0
    3.6436    1.0794    1.2762 C   0  0  0  0  0  0  0  0  0  0  0  0
    0.1742    2.3358   -1.8133 C   0  0  0  0  0  0  0  0  0  0  0  0
   -1.1675    2.0509   -1.1346 C   0  0  0  0  0  0  0  0  0  0  0  0
    4.8507    0.1442    1.4555 C   0  0  0  0  0  0  0  0  0  0  0  0
    2.8397    0.0407   -0.4167 H   0  0  0  0  0  0  0  0  0  0  0  0
    2.7069   -1.5788    1.4476 H   0  0  0  0  0  0  0  0  0  0  0  0
    1.5610   -0.5336    2.3037 H   0  0  0  0  0  0  0  0  0  0  0  0
    2.2856    2.0627   -1.4692 H   0  0  0  0  0  0  0  0  0  0  0  0
    1.5501    3.2835   -0.4466 H   0  0  0  0  0  0  0  0  0  0  0  0
    3.3215    1.4412    2.2593 H   0  0  0  0  0  0  0  0  0  0  0  0
    0.3134    1.6066   -2.6216 H   0  0  0  0  0  0  0  0  0  0  0  0
    0.1426    3.3244   -2.2914 H   0  0  0  0  0  0  0  0  0  0  0  0
   -1.2667    2.6048   -0.1953 H   0  0  0  0  0  0  0  0  0  0  0  0
   -1.9834    2.3586   -1.7923 H   0  0  0  0  0  0  0  0  0  0  0  0
    4.6304   -0.6673    2.1581 H   0  0  0  0  0  0  0  0  0  0  0  0
    5.7011    0.7055    1.8566 H   0  0  0  0  0  0  0  0  0  0  0  0
    0.4047    0.6072    0.0802 H   0  0  0  0  0  0  0  0  0  0  0  0
    0.9592    1.8319    1.2086 H   0  0  0  0  0  0  0  0  0  0  0  0
    1.1159   -1.3036    0.7655 H   0  0  0  0  0  0  0  0  0  0  0  0
    3.9659    1.9562    0.7027 H   0  0  0  0  0  0  0  0  0  0  0  0
   -1.3167    0.9806   -0.9417 H   0  0  0  0  0  0  0  0  0  0  0  0
    5.1549   -0.2952    0.4987 H   0  0  0  0  0  0  0  0  0  0  0  0
  1  2  1  0
  1  4  1  0
  2  3  1  0
  2  5  1  0
  4  6  1  0
  5  8  1  0
  6  7  1  0
  1 21  1  0
  1 22  1  0
  2  9  1  0
  3 10  1  0
  3 11  1  0
  3 23  1  0
  4 12  1  0
  4 13  1  0
  5 14  1  0
  5 24  1  0
  6 15  1  0
  6 16  1  0
  7 17  1  0
  7 18  1  0
  7 25  1  0
  8 19  1  0
  8 20  1  0
  8 26  1  0
M  END
