none
     RDKit          3D

 18 17  0  0  0  0  0  0  0  0999 V2000
    1.2254    1.3118    0.2650 C   0  0  0  0  0  0  0  0  0  0  0  0
    0.2541    0.1873   -0.0933 C   0  0  0  0  0  0  0  0  0  0  0  0
    0.4104   -0.9107    0.9681 C   0  0  0  0  0  0  0  0  0  0  0  0
    1.4047    2.2900   -0.8642 C   0  0  0  0  0  0  0  0  0  0  0  0
   -1.1531    0.7193   -0.3543 C   0  0  0  0  0  0  0  0  0  0  0  0
   -2.3092    0.1546    0.0379 C   0  0  0  0  0  0  0  0  0  0  0  0
    0.5583   -0.2520   -1.0494 H   0  0  0  0  0  0  0  0  0  0  0  0
   -0.1815   -1.7918    0.7449 H   0  0  0  0  0  0  0  0  0  0  0  0
    0.1511   -0.5439    1.9655 H   0  0  0  0  0  0  0  0  0  0  0  0
    1.6359    1.7686   -1.8034 H   0  0  0  0  0  0  0  0  0  0  0  0
    2.2214    2.9728   -0.6463 H   0  0  0  0  0  0  0  0  0  0  0  0
   -2.3209   -0.7594    0.6070 H   0  0  0  0  0  0  0  0  0  0  0  0
    2.2099    0.8629    0.5035 H   0  0  0  0  0  0  0  0  0  0  0  0
    0.9010    1.8248    1.1876 H   0  0  0  0  0  0  0  0  0  0  0  0
    1.4685   -1.2356    1.0032 H   0  0  0  0  0  0  0  0  0  0  0  0
    0.5061    2.8978   -1.0243 H   0  0  0  0  0  0  0  0  0  0  0  0
   -1.2398    1.6272   -0.9673 H   0  0  0  0  0  0  0  0  0  0  0  0
   -3.2567    0.5975   -0.2337 H   0  0  0  0  0  0  0  0  0  0  0  0
  1  2  1  0
  1  4  1  0
  2  3  1  0
  2  5  1  0
  5  6  2  3
  1 13  1  0
  1 14  1  0
  2  7  1  0
  3  8  1  0
  3  9  1  0
  3 15  1  0
  4 10  1  0
  4 11  1  0
  4 16  1  0
  5 17  1  0
  6 12  1  0
  6 18  1  0
M  END
