none
     RDKit          3D

 20 19  0  0  0  0  0  0  0  0999 V2000
    1.2359    1.2558    0.2842 C   0  0  0  0  0  0  0  0  0  0  0  0
    2.4953    0.4130    0.5567 C   0  0  0  0  0  0  0  0  0  0  0  0
    0.1974    0.2006   -0.0978 C   0  0  0  0  0  0  0  0  0  0  0  0
    1.3963    2.2779   -0.8603 C   0  0  0  0  0  0  0  0  0  0  0  0
    3.6485    1.0877    1.2754 C   0  0  0  0  0  0  0  0  0  0  0  0
    4.8424    0.1465    1.4540 C   0  0  0  0  0  0  0  0  0  0  0  0
    2.8487    0.0112   -0.4015 H   0  0  0  0  0  0  0  0  0  0  0  0
    0.5467   -0.3944   -0.9670 H   0  0  0  0  0  0  0  0  0  0  0  0
    1.7218    1.7777   -1.7863 H   0  0  0  0  0  0  0  0  0  0  0  0
    2.1355    3.0472   -0.6175 H   0  0  0  0  0  0  0  0  0  0  0  0
    3.3136    1.4293    2.2603 H   0  0  0  0  0  0  0  0  0  0  0  0
    4.5748   -0.7390    2.0439 H   0  0  0  0  0  0  0  0  0  0  0  0
    5.6587    0.6645    1.9786 H   0  0  0  0  0  0  0  0  0  0  0  0
    0.9040    1.7969    1.2057 H   0  0  0  0  0  0  0  0  0  0  0  0
    2.2057   -0.4632    1.1625 H   0  0  0  0  0  0  0  0  0  0  0  0
    0.0304   -0.5097    0.7338 H   0  0  0  0  0  0  0  0  0  0  0  0
   -0.7464    0.6390   -0.3506 H   0  0  0  0  0  0  0  0  0  0  0  0
    0.4439    2.7878   -1.0814 H   0  0  0  0  0  0  0  0  0  0  0  0
    3.9689    1.9617    0.7125 H   0  0  0  0  0  0  0  0  0  0  0  0
    5.2310   -0.1932    0.4849 H   0  0  0  0  0  0  0  0  0  0  0  0
  1  2  1  0
  1  3  1  0
  1  4  1  0
  2  5  1  0
  5  6  1  0
  1 14  1  0
  2  7  1  0
  2 15  1  0
  3  8  1  0
  3 16  1  0
  3 17  1  0
  4  9  1  0
  4 10  1  0
  4 18  1  0
  5 11  1  0
  5 19  1  0
  6 12  1  0
  6 13  1  0
  6 20  1  0
M  END
