none
     RDKit          3D

 29 28  0  0  0  0  0  0  0  0999 V2000
    1.2295    1.2868    0.2954 C   0  0  0  0  0  0  0  0  0  0  0  0
    2.4781    0.4088    0.5537 C   0  0  0  0  0  0  0  0  0  0  0  0
    1.3936    2.2845   -0.8742 C   0  0  0  0  0  0  0  0  0  0  0  0
    3.6429    1.0797    1.2729 C   0  0  0  0  0  0  0  0  0  0  0  0
    0.1761    2.3377   -1.8142 C   0  0  0  0  0  0  0  0  0  0  0  0
    4.8534    0.1396    1.4571 C   0  0  0  0  0  0  0  0  0  0  0  0
    5.4376   -0.4593    0.1688 C   0  0  0  0  0  0  0  0  0  0  0  0
    6.5897   -1.4392    0.4215 C   0  0  0  0  0  0  0  0  0  0  0  0
    7.2202   -1.9851   -0.8715 C   0  0  0  0  0  0  0  0  0  0  0  0
    2.7985    0.0038   -0.4112 H   0  0  0  0  0  0  0  0  0  0  0  0
    2.2732    2.0251   -1.4745 H   0  0  0  0  0  0  0  0  0  0  0  0
    1.5767    3.2853   -0.4653 H   0  0  0  0  0  0  0  0  0  0  0  0
    3.3154    1.4321    2.2590 H   0  0  0  0  0  0  0  0  0  0  0  0
    0.0103    1.3631   -2.2856 H   0  0  0  0  0  0  0  0  0  0  0  0
    0.3383    3.0785   -2.6047 H   0  0  0  0  0  0  0  0  0  0  0  0
    4.5557   -0.6793    2.1234 H   0  0  0  0  0  0  0  0  0  0  0  0
    5.6425    0.6943    1.9799 H   0  0  0  0  0  0  0  0  0  0  0  0
    5.7852    0.3549   -0.4768 H   0  0  0  0  0  0  0  0  0  0  0  0
    4.6628   -1.0007   -0.3828 H   0  0  0  0  0  0  0  0  0  0  0  0
    6.2271   -2.2826    1.0207 H   0  0  0  0  0  0  0  0  0  0  0  0
    7.3710   -0.9408    1.0064 H   0  0  0  0  0  0  0  0  0  0  0  0
    8.0328   -2.6786   -0.6311 H   0  0  0  0  0  0  0  0  0  0  0  0
    0.3980    0.6073    0.0693 H   0  0  0  0  0  0  0  0  0  0  0  0
    0.9540    1.8262    1.2093 H   0  0  0  0  0  0  0  0  0  0  0  0
    2.1605   -0.4506    1.1583 H   0  0  0  0  0  0  0  0  0  0  0  0
    3.9621    1.9612    0.7067 H   0  0  0  0  0  0  0  0  0  0  0  0
   -0.7272    2.6151   -1.2616 H   0  0  0  0  0  0  0  0  0  0  0  0
    7.6308   -1.1695   -1.4747 H   0  0  0  0  0  0  0  0  0  0  0  0
    6.4759   -2.5197   -1.4700 H   0  0  0  0  0  0  0  0  0  0  0  0
  1  2  1  0
  1  3  1  0
  2  4  1  0
  3  5  1  0
  4  6  1  0
  6  7  1  0
  7  8  1  0
  8  9  1  0
  1 23  1  0
  1 24  1  0
  2 10  1  0
  2 25  1  0
  3 11  1  0
  3 12  1  0
  4 13  1  0
  4 26  1  0
  5 14  1  0
  5 15  1  0
  5 27  1  0
  6 16  1  0
  6 17  1  0
  7 18  1  0
  7 19  1  0
  8 20  1  0
  8 21  1  0
  9 22  1  0
  9 28  1  0
  9 29  1  0
M  END
