none
     RDKit          3D

 27 27  0  0  0  0  0  0  0  0999 V2000
    1.2198    1.2829    0.2877 C   0  0  0  0  0  0  0  0  0  0  0  0
    2.4780    0.4075    0.5524 C   0  0  0  0  0  0  0  0  0  0  0  0
    0.2078    0.1702   -0.0549 C   0  0  0  0  0  0  0  0  0  0  0  0
    1.9360   -0.8204    1.3154 C   0  0  0  0  0  0  0  0  0  0  0  0
    0.4461   -0.9151    0.9742 C   0  0  0  0  0  0  0  0  0  0  0  0
    1.3991    2.2756   -0.8902 C   0  0  0  0  0  0  0  0  0  0  0  0
    3.6378    1.0809    1.2729 C   0  0  0  0  0  0  0  0  0  0  0  0
    0.7916    2.0606    1.5518 C   0  0  0  0  0  0  0  0  0  0  0  0
    0.1917    2.3794   -1.8219 C   0  0  0  0  0  0  0  0  0  0  0  0
    2.8590    0.0502   -0.4153 H   0  0  0  0  0  0  0  0  0  0  0  0
    0.4343   -0.2592   -1.0501 H   0  0  0  0  0  0  0  0  0  0  0  0
    2.4676   -1.7290    1.0029 H   0  0  0  0  0  0  0  0  0  0  0  0
    2.0647   -0.7217    2.3991 H   0  0  0  0  0  0  0  0  0  0  0  0
    0.1681   -1.9047    0.5991 H   0  0  0  0  0  0  0  0  0  0  0  0
   -0.1600   -0.7196    1.8710 H   0  0  0  0  0  0  0  0  0  0  0  0
    2.2690    2.0013   -1.4949 H   0  0  0  0  0  0  0  0  0  0  0  0
    1.6114    3.2806   -0.5008 H   0  0  0  0  0  0  0  0  0  0  0  0
    3.3765    1.3709    2.2949 H   0  0  0  0  0  0  0  0  0  0  0  0
   -0.1793    2.5441    1.4111 H   0  0  0  0  0  0  0  0  0  0  0  0
    0.7202    1.4199    2.4378 H   0  0  0  0  0  0  0  0  0  0  0  0
    1.5204    2.8471    1.7925 H   0  0  0  0  0  0  0  0  0  0  0  0
    0.0632    1.4523   -2.4032 H   0  0  0  0  0  0  0  0  0  0  0  0
    0.3249    3.1873   -2.5431 H   0  0  0  0  0  0  0  0  0  0  0  0
   -0.8329    0.5031   -0.0609 H   0  0  0  0  0  0  0  0  0  0  0  0
    4.4891    0.3956    1.3379 H   0  0  0  0  0  0  0  0  0  0  0  0
    3.9681    1.9750    0.7351 H   0  0  0  0  0  0  0  0  0  0  0  0
   -0.7364    2.5647   -1.2657 H   0  0  0  0  0  0  0  0  0  0  0  0
  1  2  1  0
  1  3  1  0
  1  6  1  0
  1  8  1  0
  2  4  1  0
  2  7  1  0
  3  5  1  0
  4  5  1  0
  6  9  1  0
  2 10  1  0
  3 11  1  0
  3 24  1  0
  4 12  1  0
  4 13  1  0
  5 14  1  0
  5 15  1  0
  6 16  1  0
  6 17  1  0
  7 18  1  0
  7 25  1  0
  7 26  1  0
  8 19  1  0
  8 20  1  0
  8 21  1  0
  9 22  1  0
  9 23  1  0
  9 27  1  0
M  END
