none
     RDKit          3D

 17 16  0  0  0  0  0  0  0  0999 V2000
    1.1711    1.2223    0.2967 C   0  0  0  0  0  0  0  0  0  0  0  0
    2.4947    0.4641    0.5081 C   0  0  0  0  0  0  0  0  0  0  0  0
    0.1559    0.1188   -0.0423 C   0  0  0  0  0  0  0  0  0  0  0  0
    1.3684    2.2502   -0.8429 C   0  0  0  0  0  0  0  0  0  0  0  0
    0.2361    2.3773   -1.8515 C   0  0  0  0  0  0  0  0  0  0  0  0
    2.7977   -0.0898   -0.3876 H   0  0  0  0  0  0  0  0  0  0  0  0
    0.4218   -0.4151   -0.9612 H   0  0  0  0  0  0  0  0  0  0  0  0
    2.2805    2.0196   -1.4084 H   0  0  0  0  0  0  0  0  0  0  0  0
    1.5494    3.2321   -0.3874 H   0  0  0  0  0  0  0  0  0  0  0  0
    0.1012    1.4568   -2.4270 H   0  0  0  0  0  0  0  0  0  0  0  0
    0.4604    3.1783   -2.5638 H   0  0  0  0  0  0  0  0  0  0  0  0
    0.8716    1.7317    1.2191 H   0  0  0  0  0  0  0  0  0  0  0  0
    2.4100   -0.2481    1.3363 H   0  0  0  0  0  0  0  0  0  0  0  0
    3.2981    1.1651    0.7600 H   0  0  0  0  0  0  0  0  0  0  0  0
    0.0976   -0.6173    0.7676 H   0  0  0  0  0  0  0  0  0  0  0  0
   -0.8491    0.5358   -0.1634 H   0  0  0  0  0  0  0  0  0  0  0  0
   -0.7065    2.6286   -1.3556 H   0  0  0  0  0  0  0  0  0  0  0  0
  1  2  1  0
  1  3  1  0
  1  4  1  0
  4  5  1  0
  1 12  1  0
  2  6  1  0
  2 13  1  0
  2 14  1  0
  3  7  1  0
  3 15  1  0
  3 16  1  0
  4  8  1  0
  4  9  1  0
  5 10  1  0
  5 11  1  0
  5 17  1  0
M  END
