none
     RDKit          3D

 26 25  0  0  0  0  0  0  0  0999 V2000
    1.2301    1.2812    0.2998 C   0  0  0  0  0  0  0  0  0  0  0  0
    2.4823    0.4106    0.5546 C   0  0  0  0  0  0  0  0  0  0  0  0
    0.2143    0.1846   -0.0957 C   0  0  0  0  0  0  0  0  0  0  0  0
    3.6439    1.0796    1.2735 C   0  0  0  0  0  0  0  0  0  0  0  0
    0.8122    2.0636    1.5688 C   0  0  0  0  0  0  0  0  0  0  0  0
    4.8538    0.1397    1.4568 C   0  0  0  0  0  0  0  0  0  0  0  0
    5.4378   -0.4595    0.1697 C   0  0  0  0  0  0  0  0  0  0  0  0
    6.5880   -1.4379    0.4221 C   0  0  0  0  0  0  0  0  0  0  0  0
    2.8193    0.0437   -0.4221 H   0  0  0  0  0  0  0  0  0  0  0  0
    0.5561   -0.3905   -0.9653 H   0  0  0  0  0  0  0  0  0  0  0  0
    3.3341    1.4200    2.2685 H   0  0  0  0  0  0  0  0  0  0  0  0
   -0.1626    2.5370    1.4149 H   0  0  0  0  0  0  0  0  0  0  0  0
    0.7334    1.3987    2.4360 H   0  0  0  0  0  0  0  0  0  0  0  0
    1.5340    2.8548    1.7985 H   0  0  0  0  0  0  0  0  0  0  0  0
    4.5579   -0.6789    2.1244 H   0  0  0  0  0  0  0  0  0  0  0  0
    5.6430    0.6950    1.9788 H   0  0  0  0  0  0  0  0  0  0  0  0
    5.7891    0.3493   -0.4810 H   0  0  0  0  0  0  0  0  0  0  0  0
    4.6666   -1.0064   -0.3809 H   0  0  0  0  0  0  0  0  0  0  0  0
    6.2536   -2.2818    1.0340 H   0  0  0  0  0  0  0  0  0  0  0  0
    7.4134   -0.9407    0.9406 H   0  0  0  0  0  0  0  0  0  0  0  0
    1.3959    1.9760   -0.5338 H   0  0  0  0  0  0  0  0  0  0  0  0
    2.2137   -0.4783    1.1438 H   0  0  0  0  0  0  0  0  0  0  0  0
    0.0166   -0.5107    0.7297 H   0  0  0  0  0  0  0  0  0  0  0  0
   -0.7388    0.6476   -0.3639 H   0  0  0  0  0  0  0  0  0  0  0  0
    3.9596    1.9652    0.7112 H   0  0  0  0  0  0  0  0  0  0  0  0
    6.9664   -1.8312   -0.5272 H   0  0  0  0  0  0  0  0  0  0  0  0
  1  2  1  0
  1  3  1  0
  1  5  1  0
  2  4  1  0
  4  6  1  0
  6  7  1  0
  7  8  1  0
  1 21  1  0
  2  9  1  0
  2 22  1  0
  3 10  1  0
  3 23  1  0
  3 24  1  0
  4 11  1  0
  4 25  1  0
  5 12  1  0
  5 13  1  0
  5 14  1  0
  6 15  1  0
  6 16  1  0
  7 17  1  0
  7 18  1  0
  8 19  1  0
  8 20  1  0
  8 26  1  0
M  END
