none
     RDKit          3D

 27 26  0  0  0  0  0  0  0  0999 V2000
    1.2303    1.2796    0.2980 C   0  0  0  0  0  0  0  0  0  0  0  0
    2.4823    0.4107    0.5545 C   0  0  0  0  0  0  0  0  0  0  0  0
    0.2140    0.1833   -0.0965 C   0  0  0  0  0  0  0  0  0  0  0  0
    3.6429    1.0803    1.2732 C   0  0  0  0  0  0  0  0  0  0  0  0
   -1.1548    0.7404   -0.3617 C   0  0  0  0  0  0  0  0  0  0  0  0
    4.8536    0.1398    1.4571 C   0  0  0  0  0  0  0  0  0  0  0  0
   -2.2974    0.1558    0.0259 C   0  0  0  0  0  0  0  0  0  0  0  0
    5.4377   -0.4595    0.1697 C   0  0  0  0  0  0  0  0  0  0  0  0
    6.5879   -1.4379    0.4221 C   0  0  0  0  0  0  0  0  0  0  0  0
    2.8198    0.0442   -0.4220 H   0  0  0  0  0  0  0  0  0  0  0  0
    0.5543   -0.3179   -1.0128 H   0  0  0  0  0  0  0  0  0  0  0  0
    3.3137    1.4315    2.2587 H   0  0  0  0  0  0  0  0  0  0  0  0
    4.5578   -0.6787    2.1248 H   0  0  0  0  0  0  0  0  0  0  0  0
    5.6425    0.6953    1.9790 H   0  0  0  0  0  0  0  0  0  0  0  0
   -2.3015   -0.7739    0.5866 H   0  0  0  0  0  0  0  0  0  0  0  0
    5.7891    0.3493   -0.4807 H   0  0  0  0  0  0  0  0  0  0  0  0
    4.6664   -1.0064   -0.3811 H   0  0  0  0  0  0  0  0  0  0  0  0
    6.2534   -2.2822    1.0335 H   0  0  0  0  0  0  0  0  0  0  0  0
    7.4131   -0.9409    0.9411 H   0  0  0  0  0  0  0  0  0  0  0  0
    1.3989    2.0049   -0.5075 H   0  0  0  0  0  0  0  0  0  0  0  0
    0.9161    1.8052    1.2066 H   0  0  0  0  0  0  0  0  0  0  0  0
    2.2179   -0.4763    1.1473 H   0  0  0  0  0  0  0  0  0  0  0  0
    0.1422   -0.5818    0.6895 H   0  0  0  0  0  0  0  0  0  0  0  0
    3.9594    1.9631    0.7074 H   0  0  0  0  0  0  0  0  0  0  0  0
   -1.2092    1.6605   -0.9401 H   0  0  0  0  0  0  0  0  0  0  0  0
   -3.2583    0.6008   -0.2146 H   0  0  0  0  0  0  0  0  0  0  0  0
    6.9667   -1.8307   -0.5273 H   0  0  0  0  0  0  0  0  0  0  0  0
  1  2  1  0
  1  3  1  0
  2  4  1  0
  3  5  1  0
  4  6  1  0
  5  7  2  3
  6  8  1  0
  8  9  1  0
  1 20  1  0
  1 21  1  0
  2 10  1  0
  2 22  1  0
  3 11  1  0
  3 23  1  0
  4 12  1  0
  4 24  1  0
  5 25  1  0
  6 13  1  0
  6 14  1  0
  7 15  1  0
  7 26  1  0
  8 16  1  0
  8 17  1  0
  9 18  1  0
  9 19  1  0
  9 27  1  0
M  END
