none
     RDKit          3D

 29 28  0  0  0  0  0  0  0  0999 V2000
    1.2304    1.2820    0.2977 C   0  0  0  0  0  0  0  0  0  0  0  0
    2.4838    0.4112    0.5555 C   0  0  0  0  0  0  0  0  0  0  0  0
    0.2106    0.1867   -0.0953 C   0  0  0  0  0  0  0  0  0  0  0  0
    1.3894    2.2819   -0.8748 C   0  0  0  0  0  0  0  0  0  0  0  0
    3.6469    1.0834    1.2714 C   0  0  0  0  0  0  0  0  0  0  0  0
    0.8091    2.0610    1.5688 C   0  0  0  0  0  0  0  0  0  0  0  0
    4.8532    0.1375    1.4557 C   0  0  0  0  0  0  0  0  0  0  0  0
    4.0901    2.3327    0.5109 C   0  0  0  0  0  0  0  0  0  0  0  0
    5.4376   -0.4585    0.1720 C   0  0  0  0  0  0  0  0  0  0  0  0
    2.8223    0.0081   -0.4086 H   0  0  0  0  0  0  0  0  0  0  0  0
    0.5415   -0.3791   -0.9788 H   0  0  0  0  0  0  0  0  0  0  0  0
    1.9421    1.8345   -1.7079 H   0  0  0  0  0  0  0  0  0  0  0  0
    1.8821    3.2171   -0.5914 H   0  0  0  0  0  0  0  0  0  0  0  0
    3.3332    1.3850    2.2810 H   0  0  0  0  0  0  0  0  0  0  0  0
   -0.1697    2.5285    1.4238 H   0  0  0  0  0  0  0  0  0  0  0  0
    0.7300    1.3888    2.4298 H   0  0  0  0  0  0  0  0  0  0  0  0
    1.5142    2.8610    1.8288 H   0  0  0  0  0  0  0  0  0  0  0  0
    4.5577   -0.6891    2.1119 H   0  0  0  0  0  0  0  0  0  0  0  0
    5.6518    0.6752    1.9849 H   0  0  0  0  0  0  0  0  0  0  0  0
    3.4447    3.1875    0.7263 H   0  0  0  0  0  0  0  0  0  0  0  0
    5.0869    2.6429    0.8313 H   0  0  0  0  0  0  0  0  0  0  0  0
    4.1372    2.1690   -0.5722 H   0  0  0  0  0  0  0  0  0  0  0  0
    5.7343    0.3198   -0.5370 H   0  0  0  0  0  0  0  0  0  0  0  0
    4.7276   -1.1306   -0.3197 H   0  0  0  0  0  0  0  0  0  0  0  0
    2.2084   -0.4640    1.1641 H   0  0  0  0  0  0  0  0  0  0  0  0
    0.0402   -0.5255    0.7237 H   0  0  0  0  0  0  0  0  0  0  0  0
   -0.7546    0.6313   -0.3359 H   0  0  0  0  0  0  0  0  0  0  0  0
    0.4056    2.5734   -1.2572 H   0  0  0  0  0  0  0  0  0  0  0  0
    6.3291   -1.0481    0.4121 H   0  0  0  0  0  0  0  0  0  0  0  0
  1  2  1  0
  1  3  1  0
  1  4  1  0
  1  6  1  0
  2  5  1  0
  5  7  1  0
  5  8  1  0
  7  9  1  0
  2 10  1  0
  2 25  1  0
  3 11  1  0
  3 26  1  0
  3 27  1  0
  4 12  1  0
  4 13  1  0
  4 28  1  0
  5 14  1  0
  6 15  1  0
  6 16  1  0
  6 17  1  0
  7 18  1  0
  7 19  1  0
  8 20  1  0
  8 21  1  0
  8 22  1  0
  9 23  1  0
  9 24  1  0
  9 29  1  0
M  END
