none
     RDKit          3D

 23 22  0  0  0  0  0  0  0  0999 V2000
    0.2162    0.1801   -0.0957 C   0  0  0  0  0  0  0  0  0  0  0  0
   -1.1528    0.7420   -0.3607 C   0  0  0  0  0  0  0  0  0  0  0  0
   -2.2929    0.1562    0.0211 C   0  0  0  0  0  0  0  0  0  0  0  0
   -3.6003    0.7066   -0.2513 C   0  0  0  0  0  0  0  0  0  0  0  0
   -4.7480    0.1199    0.1363 C   0  0  0  0  0  0  0  0  0  0  0  0
   -6.0975    0.7049   -0.2113 C   0  0  0  0  0  0  0  0  0  0  0  0
   -4.7792   -1.1344    0.8787 C   0  0  0  0  0  0  0  0  0  0  0  0
   -7.0577   -0.3310   -0.8025 C   0  0  0  0  0  0  0  0  0  0  0  0
   -4.0601   -1.3513    1.9885 C   0  0  0  0  0  0  0  0  0  0  0  0
    0.7245   -0.0223   -1.0444 H   0  0  0  0  0  0  0  0  0  0  0  0
   -2.2037   -0.8144    0.4981 H   0  0  0  0  0  0  0  0  0  0  0  0
   -3.6358    1.6411   -0.8080 H   0  0  0  0  0  0  0  0  0  0  0  0
   -5.9852    1.5231   -0.9337 H   0  0  0  0  0  0  0  0  0  0  0  0
   -6.5468    1.1397    0.6906 H   0  0  0  0  0  0  0  0  0  0  0  0
   -7.9480    0.1717   -1.1914 H   0  0  0  0  0  0  0  0  0  0  0  0
   -4.1002   -2.3113    2.4888 H   0  0  0  0  0  0  0  0  0  0  0  0
   -3.4489   -0.5790    2.4496 H   0  0  0  0  0  0  0  0  0  0  0  0
    0.8113    0.9047    0.4702 H   0  0  0  0  0  0  0  0  0  0  0  0
    0.1756   -0.7529    0.4775 H   0  0  0  0  0  0  0  0  0  0  0  0
   -1.1786    1.6954   -0.8828 H   0  0  0  0  0  0  0  0  0  0  0  0
   -5.3906   -1.9438    0.4857 H   0  0  0  0  0  0  0  0  0  0  0  0
   -6.5969   -0.8821   -1.6294 H   0  0  0  0  0  0  0  0  0  0  0  0
   -7.4023   -1.0463   -0.0476 H   0  0  0  0  0  0  0  0  0  0  0  0
  1  2  1  0
  2  3  2  0
  3  4  1  0
  4  5  2  0
  5  6  1  0
  5  7  1  0
  6  8  1  0
  7  9  2  0
  1 10  1  0
  1 18  1  0
  1 19  1  0
  2 20  1  0
  3 11  1  0
  4 12  1  0
  6 13  1  0
  6 14  1  0
  7 21  1  0
  8 15  1  0
  8 22  1  0
  8 23  1  0
  9 16  1  0
  9 17  1  0
M  END
