none
     RDKit          3D

 14 13  0  0  0  0  0  0  0  0999 V2000
    6.5825   -1.4327    0.4241 C   0  0  0  0  0  0  0  0  0  0  0  0
    4.8536    0.1401    1.4641 C   0  0  0  0  0  0  0  0  0  0  0  0
    3.6546    1.0689    1.2670 C   0  0  0  0  0  0  0  0  0  0  0  0
    5.4313   -0.4556    0.1674 C   0  0  0  0  0  0  0  0  0  0  0  0
    6.2532   -2.2812    1.0345 H   0  0  0  0  0  0  0  0  0  0  0  0
    7.4138   -0.9408    0.9395 H   0  0  0  0  0  0  0  0  0  0  0  0
    4.5504   -0.6763    2.1233 H   0  0  0  0  0  0  0  0  0  0  0  0
    5.6420    0.6953    1.9797 H   0  0  0  0  0  0  0  0  0  0  0  0
    3.3037    1.4509    2.2452 H   0  0  0  0  0  0  0  0  0  0  0  0
    5.7925    0.3510   -0.4774 H   0  0  0  0  0  0  0  0  0  0  0  0
    4.6437   -0.9816   -0.3768 H   0  0  0  0  0  0  0  0  0  0  0  0
    6.9644   -1.8320   -0.5276 H   0  0  0  0  0  0  0  0  0  0  0  0
    2.8147    0.5455    0.7972 H   0  0  0  0  0  0  0  0  0  0  0  0
    3.9130    1.9336    0.6477 H   0  0  0  0  0  0  0  0  0  0  0  0
  1  4  1  0
  2  3  1  0
  2  4  1  0
  1  5  1  0
  1  6  1  0
  1 12  1  0
  2  7  1  0
  2  8  1  0
  3  9  1  0
  3 13  1  0
  3 14  1  0
  4 10  1  0
  4 11  1  0
M  END
