none
     RDKit          3D

 26 25  0  0  0  0  0  0  0  0999 V2000
    1.2478    1.3001    0.3005 C   0  0  0  0  0  0  0  0  0  0  0  0
    2.4486    0.3928    0.5474 C   0  0  0  0  0  0  0  0  0  0  0  0
    1.9402   -0.8206    1.3128 C   0  0  0  0  0  0  0  0  0  0  0  0
    3.6439    1.0774    1.2695 C   0  0  0  0  0  0  0  0  0  0  0  0
    4.8594    0.1405    1.4633 C   0  0  0  0  0  0  0  0  0  0  0  0
    5.4359   -0.4587    0.1620 C   0  0  0  0  0  0  0  0  0  0  0  0
    6.5942   -1.4393    0.4219 C   0  0  0  0  0  0  0  0  0  0  0  0
    7.2137   -1.9802   -0.8646 C   0  0  0  0  0  0  0  0  0  0  0  0
    2.8108    0.0754   -0.4359 H   0  0  0  0  0  0  0  0  0  0  0  0
    2.6834   -1.6098    1.3824 H   0  0  0  0  0  0  0  0  0  0  0  0
    1.6246   -0.5488    2.3287 H   0  0  0  0  0  0  0  0  0  0  0  0
    3.3186    1.4381    2.2587 H   0  0  0  0  0  0  0  0  0  0  0  0
    4.5903   -0.6683    2.1484 H   0  0  0  0  0  0  0  0  0  0  0  0
    5.6443    0.7111    1.9612 H   0  0  0  0  0  0  0  0  0  0  0  0
    5.7846    0.3544   -0.4784 H   0  0  0  0  0  0  0  0  0  0  0  0
    4.6624   -0.9983   -0.3843 H   0  0  0  0  0  0  0  0  0  0  0  0
    6.2274   -2.2827    1.0210 H   0  0  0  0  0  0  0  0  0  0  0  0
    7.3713   -0.9411    1.0066 H   0  0  0  0  0  0  0  0  0  0  0  0
    8.0344   -2.6767   -0.6307 H   0  0  0  0  0  0  0  0  0  0  0  0
    0.4690    0.7482   -0.2767 H   0  0  0  0  0  0  0  0  0  0  0  0
    1.5142    2.1764   -0.2775 H   0  0  0  0  0  0  0  0  0  0  0  0
    0.7859    1.6241    1.2395 H   0  0  0  0  0  0  0  0  0  0  0  0
    1.0658   -1.2510    0.7981 H   0  0  0  0  0  0  0  0  0  0  0  0
    3.9592    1.9598    0.7034 H   0  0  0  0  0  0  0  0  0  0  0  0
    7.6284   -1.1706   -1.4780 H   0  0  0  0  0  0  0  0  0  0  0  0
    6.4763   -2.5229   -1.4675 H   0  0  0  0  0  0  0  0  0  0  0  0
  1  2  1  0
  2  3  1  0
  2  4  1  0
  4  5  1  0
  5  6  1  0
  6  7  1  0
  7  8  1  0
  1 20  1  0
  1 21  1  0
  1 22  1  0
  2  9  1  0
  3 10  1  0
  3 11  1  0
  3 23  1  0
  4 12  1  0
  4 24  1  0
  5 13  1  0
  5 14  1  0
  6 15  1  0
  6 16  1  0
  7 17  1  0
  7 18  1  0
  8 19  1  0
  8 25  1  0
  8 26  1  0
M  END
