none
     RDKit          3D

 20 19  0  0  0  0  0  0  0  0999 V2000
    3.6443    1.0771    1.2734 C   0  0  0  0  0  0  0  0  0  0  0  0
    4.8536    0.1405    1.4578 C   0  0  0  0  0  0  0  0  0  0  0  0
    5.4359   -0.4580    0.1695 C   0  0  0  0  0  0  0  0  0  0  0  0
    6.5897   -1.4381    0.4217 C   0  0  0  0  0  0  0  0  0  0  0  0
    7.2186   -1.9868   -0.8719 C   0  0  0  0  0  0  0  0  0  0  0  0
    6.1992   -2.8355   -1.6319 C   0  0  0  0  0  0  0  0  0  0  0  0
    3.3042    1.4515    2.2451 H   0  0  0  0  0  0  0  0  0  0  0  0
    4.5505   -0.6760    2.1237 H   0  0  0  0  0  0  0  0  0  0  0  0
    5.6417    0.6961    1.9796 H   0  0  0  0  0  0  0  0  0  0  0  0
    5.7839    0.3557   -0.4772 H   0  0  0  0  0  0  0  0  0  0  0  0
    4.6248   -0.9658   -0.3624 H   0  0  0  0  0  0  0  0  0  0  0  0
    6.2379   -2.2711    1.0435 H   0  0  0  0  0  0  0  0  0  0  0  0
    7.3724   -0.9263    0.9935 H   0  0  0  0  0  0  0  0  0  0  0  0
    8.0851   -2.6075   -0.6139 H   0  0  0  0  0  0  0  0  0  0  0  0
    5.3881   -2.2252   -2.0404 H   0  0  0  0  0  0  0  0  0  0  0  0
    6.6877   -3.3331   -2.4751 H   0  0  0  0  0  0  0  0  0  0  0  0
    5.7670   -3.6091   -0.9885 H   0  0  0  0  0  0  0  0  0  0  0  0
    2.8143    0.5454    0.7980 H   0  0  0  0  0  0  0  0  0  0  0  0
    3.9127    1.9332    0.6471 H   0  0  0  0  0  0  0  0  0  0  0  0
    7.5753   -1.1669   -1.5063 H   0  0  0  0  0  0  0  0  0  0  0  0
  1  2  1  0
  2  3  1  0
  3  4  1  0
  4  5  1  0
  5  6  1  0
  1  7  1  0
  1 18  1  0
  1 19  1  0
  2  8  1  0
  2  9  1  0
  3 10  1  0
  3 11  1  0
  4 12  1  0
  4 13  1  0
  5 14  1  0
  5 20  1  0
  6 15  1  0
  6 16  1  0
  6 17  1  0
M  END
