none
     RDKit          3D

 25 24  0  0  0  0  0  0  0  0999 V2000
   -1.1588    0.7471   -0.3648 C   0  0  0  0  0  0  0  0  0  0  0  0
    0.1735    2.3358   -1.8139 C   0  0  0  0  0  0  0  0  0  0  0  0
   -1.1555    2.0464   -1.1327 C   0  0  0  0  0  0  0  0  0  0  0  0
   -2.2971    0.1543    0.0272 C   0  0  0  0  0  0  0  0  0  0  0  0
   -3.6058    0.7028   -0.2521 C   0  0  0  0  0  0  0  0  0  0  0  0
   -4.7442    0.1276    0.1345 C   0  0  0  0  0  0  0  0  0  0  0  0
   -6.0967    0.7032   -0.2079 C   0  0  0  0  0  0  0  0  0  0  0  0
   -7.0530   -0.3355   -0.7983 C   0  0  0  0  0  0  0  0  0  0  0  0
   -7.1280   -1.5956    0.0601 C   0  0  0  0  0  0  0  0  0  0  0  0
    0.4298    1.5474   -2.5300 H   0  0  0  0  0  0  0  0  0  0  0  0
    0.1224    3.2863   -2.3594 H   0  0  0  0  0  0  0  0  0  0  0  0
   -1.3868    2.8699   -0.4431 H   0  0  0  0  0  0  0  0  0  0  0  0
   -1.9201    2.0351   -1.9236 H   0  0  0  0  0  0  0  0  0  0  0  0
   -2.2484   -0.7766    0.5853 H   0  0  0  0  0  0  0  0  0  0  0  0
   -3.6754    1.6270   -0.8221 H   0  0  0  0  0  0  0  0  0  0  0  0
   -6.0066    1.5464   -0.9089 H   0  0  0  0  0  0  0  0  0  0  0  0
   -6.5340    1.1060    0.7128 H   0  0  0  0  0  0  0  0  0  0  0  0
   -8.0556    0.1081   -0.8810 H   0  0  0  0  0  0  0  0  0  0  0  0
   -7.9554   -2.2218   -0.2735 H   0  0  0  0  0  0  0  0  0  0  0  0
   -7.2929   -1.3509    1.1161 H   0  0  0  0  0  0  0  0  0  0  0  0
   -0.2017    0.2910   -0.1016 H   0  0  0  0  0  0  0  0  0  0  0  0
    0.9835    2.4098   -1.0811 H   0  0  0  0  0  0  0  0  0  0  0  0
   -4.7062   -0.7741    0.7465 H   0  0  0  0  0  0  0  0  0  0  0  0
   -6.7394   -0.6076   -1.8140 H   0  0  0  0  0  0  0  0  0  0  0  0
   -6.2165   -2.2015   -0.0251 H   0  0  0  0  0  0  0  0  0  0  0  0
  1  3  1  0
  1  4  2  0
  2  3  1  0
  4  5  1  0
  5  6  2  0
  6  7  1  0
  7  8  1  0
  8  9  1  0
  1 21  1  0
  2 10  1  0
  2 11  1  0
  2 22  1  0
  3 12  1  0
  3 13  1  0
  4 14  1  0
  5 15  1  0
  6 23  1  0
  7 16  1  0
  7 17  1  0
  8 18  1  0
  8 24  1  0
  9 19  1  0
  9 20  1  0
  9 25  1  0
M  END
