none
     RDKit          3D

 22 22  0  0  0  0  0  0  0  0999 V2000
    1.2666    1.2652    0.3228 C   0  0  0  0  0  0  0  0  0  0  0  0
    2.4958    0.3927    0.5773 C   0  0  0  0  0  0  0  0  0  0  0  0
    0.2324    0.2141   -0.0969 C   0  0  0  0  0  0  0  0  0  0  0  0
    1.9282   -0.8283    1.3050 C   0  0  0  0  0  0  0  0  0  0  0  0
    0.4327   -0.8763    0.9616 C   0  0  0  0  0  0  0  0  0  0  0  0
   -1.1502    0.7595   -0.3725 C   0  0  0  0  0  0  0  0  0  0  0  0
   -1.2199    2.0439   -1.1633 C   0  0  0  0  0  0  0  0  0  0  0  0
   -2.2760    0.1585    0.0353 C   0  0  0  0  0  0  0  0  0  0  0  0
    2.9453    0.0887   -0.3761 H   0  0  0  0  0  0  0  0  0  0  0  0
    0.5724   -0.2066   -1.0591 H   0  0  0  0  0  0  0  0  0  0  0  0
    2.4454   -1.7429    0.9990 H   0  0  0  0  0  0  0  0  0  0  0  0
    2.0538   -0.7208    2.3865 H   0  0  0  0  0  0  0  0  0  0  0  0
    0.1402   -1.8631    0.5915 H   0  0  0  0  0  0  0  0  0  0  0  0
   -0.1547   -0.6715    1.8660 H   0  0  0  0  0  0  0  0  0  0  0  0
   -0.8437    2.8836   -0.5695 H   0  0  0  0  0  0  0  0  0  0  0  0
   -2.2461    2.2847   -1.4654 H   0  0  0  0  0  0  0  0  0  0  0  0
   -2.2677   -0.7727    0.5873 H   0  0  0  0  0  0  0  0  0  0  0  0
    1.4715    2.0027   -0.4586 H   0  0  0  0  0  0  0  0  0  0  0  0
    0.9603    1.7935    1.2344 H   0  0  0  0  0  0  0  0  0  0  0  0
    3.2597    0.9117    1.1643 H   0  0  0  0  0  0  0  0  0  0  0  0
   -0.6162    1.9662   -2.0752 H   0  0  0  0  0  0  0  0  0  0  0  0
   -3.2522    0.5792   -0.1868 H   0  0  0  0  0  0  0  0  0  0  0  0
  1  2  1  0
  1  3  1  0
  2  4  1  0
  3  5  1  0
  3  6  1  0
  4  5  1  0
  6  7  1  0
  6  8  2  3
  1 18  1  0
  1 19  1  0
  2  9  1  0
  2 20  1  0
  3 10  1  0
  4 11  1  0
  4 12  1  0
  5 13  1  0
  5 14  1  0
  7 15  1  0
  7 16  1  0
  7 21  1  0
  8 17  1  0
  8 22  1  0
M  END
