none
     RDKit          3D

 27 27  0  0  0  0  0  0  0  0999 V2000
    1.2321    1.2764    0.2788 C   0  0  0  0  0  0  0  0  0  0  0  0
    2.4736    0.4067    0.5515 C   0  0  0  0  0  0  0  0  0  0  0  0
    0.2152    0.1860   -0.0838 C   0  0  0  0  0  0  0  0  0  0  0  0
    1.9243   -0.8154    1.3118 C   0  0  0  0  0  0  0  0  0  0  0  0
    0.4402   -0.8968    0.9626 C   0  0  0  0  0  0  0  0  0  0  0  0
    1.3955    2.2808   -0.8601 C   0  0  0  0  0  0  0  0  0  0  0  0
    3.6471    1.0771    1.2684 C   0  0  0  0  0  0  0  0  0  0  0  0
    4.8567    0.1418    1.4582 C   0  0  0  0  0  0  0  0  0  0  0  0
    5.4329   -0.4539    0.1754 C   0  0  0  0  0  0  0  0  0  0  0  0
    2.8361    0.0616   -0.4256 H   0  0  0  0  0  0  0  0  0  0  0  0
    0.4336   -0.2217   -1.0918 H   0  0  0  0  0  0  0  0  0  0  0  0
    2.4532   -1.7299    1.0071 H   0  0  0  0  0  0  0  0  0  0  0  0
    2.0475   -0.7142    2.3968 H   0  0  0  0  0  0  0  0  0  0  0  0
    0.1490   -1.8926    0.6029 H   0  0  0  0  0  0  0  0  0  0  0  0
   -0.1647   -0.6827    1.8589 H   0  0  0  0  0  0  0  0  0  0  0  0
    1.7647    1.7898   -1.7766 H   0  0  0  0  0  0  0  0  0  0  0  0
    2.1046    3.0703   -0.5976 H   0  0  0  0  0  0  0  0  0  0  0  0
    3.3207    1.4394    2.2583 H   0  0  0  0  0  0  0  0  0  0  0  0
    4.5929   -0.6757    2.1398 H   0  0  0  0  0  0  0  0  0  0  0  0
    5.6458    0.7123    1.9553 H   0  0  0  0  0  0  0  0  0  0  0  0
    5.6616    0.3262   -0.5575 H   0  0  0  0  0  0  0  0  0  0  0  0
    4.7460   -1.1743   -0.2836 H   0  0  0  0  0  0  0  0  0  0  0  0
    0.9095    1.8056    1.2058 H   0  0  0  0  0  0  0  0  0  0  0  0
   -0.8130    0.5486   -0.0909 H   0  0  0  0  0  0  0  0  0  0  0  0
    0.4341    2.7571   -1.1084 H   0  0  0  0  0  0  0  0  0  0  0  0
    3.9638    1.9599    0.7064 H   0  0  0  0  0  0  0  0  0  0  0  0
    6.3660   -0.9939    0.3945 H   0  0  0  0  0  0  0  0  0  0  0  0
  1  2  1  0
  1  3  1  0
  1  6  1  0
  2  4  1  0
  2  7  1  0
  3  5  1  0
  4  5  1  0
  7  8  1  0
  8  9  1  0
  1 23  1  0
  2 10  1  0
  3 11  1  0
  3 24  1  0
  4 12  1  0
  4 13  1  0
  5 14  1  0
  5 15  1  0
  6 16  1  0
  6 17  1  0
  6 25  1  0
  7 18  1  0
  7 26  1  0
  8 19  1  0
  8 20  1  0
  9 21  1  0
  9 22  1  0
  9 27  1  0
M  END
