none
     RDKit          3D

 29 28  0  0  0  0  0  0  0  0999 V2000
    1.2480    1.3006    0.3006 C   0  0  0  0  0  0  0  0  0  0  0  0
    2.4481    0.3932    0.5476 C   0  0  0  0  0  0  0  0  0  0  0  0
    1.9400   -0.8207    1.3124 C   0  0  0  0  0  0  0  0  0  0  0  0
    3.6436    1.0773    1.2699 C   0  0  0  0  0  0  0  0  0  0  0  0
    4.8602    0.1415    1.4642 C   0  0  0  0  0  0  0  0  0  0  0  0
    5.4327   -0.4562    0.1662 C   0  0  0  0  0  0  0  0  0  0  0  0
    6.5949   -1.4336    0.4242 C   0  0  0  0  0  0  0  0  0  0  0  0
    7.2061   -1.9894   -0.8672 C   0  0  0  0  0  0  0  0  0  0  0  0
    6.2064   -2.8365   -1.6363 C   0  0  0  0  0  0  0  0  0  0  0  0
    2.8099    0.0765   -0.4363 H   0  0  0  0  0  0  0  0  0  0  0  0
    2.6826   -1.6110    1.3762 H   0  0  0  0  0  0  0  0  0  0  0  0
    1.6313   -0.5506    2.3310 H   0  0  0  0  0  0  0  0  0  0  0  0
    3.3181    1.4373    2.2589 H   0  0  0  0  0  0  0  0  0  0  0  0
    4.5885   -0.6686    2.1473 H   0  0  0  0  0  0  0  0  0  0  0  0
    5.6440    0.7110    1.9619 H   0  0  0  0  0  0  0  0  0  0  0  0
    5.7800    0.3534   -0.4817 H   0  0  0  0  0  0  0  0  0  0  0  0
    4.6466   -0.9903   -0.3653 H   0  0  0  0  0  0  0  0  0  0  0  0
    6.2383   -2.2713    1.0440 H   0  0  0  0  0  0  0  0  0  0  0  0
    7.3727   -0.9263    0.9929 H   0  0  0  0  0  0  0  0  0  0  0  0
    8.0848   -2.6083   -0.6130 H   0  0  0  0  0  0  0  0  0  0  0  0
    5.3923   -2.2252   -2.0488 H   0  0  0  0  0  0  0  0  0  0  0  0
    6.6892   -3.3390   -2.4708 H   0  0  0  0  0  0  0  0  0  0  0  0
    5.7615   -3.6040   -0.9862 H   0  0  0  0  0  0  0  0  0  0  0  0
    0.4687    0.7494   -0.2770 H   0  0  0  0  0  0  0  0  0  0  0  0
    1.5144    2.1769   -0.2769 H   0  0  0  0  0  0  0  0  0  0  0  0
    0.7856    1.6242    1.2394 H   0  0  0  0  0  0  0  0  0  0  0  0
    1.0623   -1.2485    0.8016 H   0  0  0  0  0  0  0  0  0  0  0  0
    3.9589    1.9605    0.7047 H   0  0  0  0  0  0  0  0  0  0  0  0
    7.5761   -1.1682   -1.5071 H   0  0  0  0  0  0  0  0  0  0  0  0
  1  2  1  0
  2  3  1  0
  2  4  1  0
  4  5  1  0
  5  6  1  0
  6  7  1  0
  7  8  1  0
  8  9  1  0
  1 24  1  0
  1 25  1  0
  1 26  1  0
  2 10  1  0
  3 11  1  0
  3 12  1  0
  3 27  1  0
  4 13  1  0
  4 28  1  0
  5 14  1  0
  5 15  1  0
  6 16  1  0
  6 17  1  0
  7 18  1  0
  7 19  1  0
  8 20  1  0
  8 29  1  0
  9 21  1  0
  9 22  1  0
  9 23  1  0
M  END
