none
     RDKit          3D

 20 19  0  0  0  0  0  0  0  0999 V2000
    1.2306    1.3038    0.3051 C   0  0  0  0  0  0  0  0  0  0  0  0
    2.4676    0.4132    0.5561 C   0  0  0  0  0  0  0  0  0  0  0  0
    1.3734    2.2701   -0.8765 C   0  0  0  0  0  0  0  0  0  0  0  0
    3.6440    1.0926    1.2543 C   0  0  0  0  0  0  0  0  0  0  0  0
    0.7979    2.0554    1.5659 C   0  0  0  0  0  0  0  0  0  0  0  0
    4.1257    2.3318    0.5269 C   0  0  0  0  0  0  0  0  0  0  0  0
    2.8198   -0.0046   -0.3995 H   0  0  0  0  0  0  0  0  0  0  0  0
    1.9210    1.8220   -1.7093 H   0  0  0  0  0  0  0  0  0  0  0  0
    1.8799    3.2060   -0.6008 H   0  0  0  0  0  0  0  0  0  0  0  0
    3.3883    1.3396    2.2940 H   0  0  0  0  0  0  0  0  0  0  0  0
   -0.1586    2.5546    1.4073 H   0  0  0  0  0  0  0  0  0  0  0  0
    0.6966    1.3767    2.4148 H   0  0  0  0  0  0  0  0  0  0  0  0
    1.5230    2.8330    1.8461 H   0  0  0  0  0  0  0  0  0  0  0  0
    3.4738    3.1902    0.7344 H   0  0  0  0  0  0  0  0  0  0  0  0
    5.1189    2.6078    0.8497 H   0  0  0  0  0  0  0  0  0  0  0  0
    4.1488    2.1646   -0.5609 H   0  0  0  0  0  0  0  0  0  0  0  0
    0.4148    0.6105    0.0327 H   0  0  0  0  0  0  0  0  0  0  0  0
    2.1680   -0.4472    1.1608 H   0  0  0  0  0  0  0  0  0  0  0  0
    0.3909    2.5677   -1.2417 H   0  0  0  0  0  0  0  0  0  0  0  0
    4.4751    0.3755    1.3183 H   0  0  0  0  0  0  0  0  0  0  0  0
  1  2  1  0
  1  3  1  0
  1  5  1  0
  2  4  1  0
  4  6  1  0
  1 17  1  0
  2  7  1  0
  2 18  1  0
  3  8  1  0
  3  9  1  0
  3 19  1  0
  4 10  1  0
  4 20  1  0
  5 11  1  0
  5 12  1  0
  5 13  1  0
  6 14  1  0
  6 15  1  0
  6 16  1  0
M  END
