none
     RDKit          3D

 19 18  0  0  0  0  0  0  0  0999 V2000
    1.2257    1.2867    0.2900 C   0  0  0  0  0  0  0  0  0  0  0  0
    0.2186    0.1831   -0.0929 C   0  0  0  0  0  0  0  0  0  0  0  0
    1.3968    2.2850   -0.8703 C   0  0  0  0  0  0  0  0  0  0  0  0
   -1.1562    0.7387   -0.3629 C   0  0  0  0  0  0  0  0  0  0  0  0
   -2.2977    0.1542    0.0270 C   0  0  0  0  0  0  0  0  0  0  0  0
   -3.6025    0.7062   -0.2518 C   0  0  0  0  0  0  0  0  0  0  0  0
   -4.7441    0.1227    0.1352 C   0  0  0  0  0  0  0  0  0  0  0  0
    0.5730   -0.3310   -0.9962 H   0  0  0  0  0  0  0  0  0  0  0  0
    1.6241    1.7652   -1.8097 H   0  0  0  0  0  0  0  0  0  0  0  0
    2.2271    2.9627   -0.6504 H   0  0  0  0  0  0  0  0  0  0  0  0
   -2.2604   -0.7749    0.5899 H   0  0  0  0  0  0  0  0  0  0  0  0
   -3.6518    1.6430   -0.8023 H   0  0  0  0  0  0  0  0  0  0  0  0
    2.1972    0.8248    0.5125 H   0  0  0  0  0  0  0  0  0  0  0  0
    0.8980    1.8177    1.1936 H   0  0  0  0  0  0  0  0  0  0  0  0
    0.1823   -0.5604    0.7114 H   0  0  0  0  0  0  0  0  0  0  0  0
    0.5057    2.9077   -1.0160 H   0  0  0  0  0  0  0  0  0  0  0  0
   -1.2215    1.6471   -0.9559 H   0  0  0  0  0  0  0  0  0  0  0  0
   -5.7026    0.5769   -0.1003 H   0  0  0  0  0  0  0  0  0  0  0  0
   -4.7561   -0.8112    0.6885 H   0  0  0  0  0  0  0  0  0  0  0  0
  1  2  1  0
  1  3  1  0
  2  4  1  0
  4  5  2  0
  5  6  1  0
  6  7  2  0
  1 13  1  0
  1 14  1  0
  2  8  1  0
  2 15  1  0
  3  9  1  0
  3 10  1  0
  3 16  1  0
  4 17  1  0
  5 11  1  0
  6 12  1  0
  7 18  1  0
  7 19  1  0
M  END
