none
     RDKit          3D

 24 23  0  0  0  0  0  0  0  0999 V2000
    1.2305    1.2730    0.2982 C   0  0  0  0  0  0  0  0  0  0  0  0
    2.4847    0.4099    0.5553 C   0  0  0  0  0  0  0  0  0  0  0  0
    0.2107    0.1856   -0.0974 C   0  0  0  0  0  0  0  0  0  0  0  0
    3.6445    1.0846    1.2744 C   0  0  0  0  0  0  0  0  0  0  0  0
   -1.1549    0.7406   -0.3622 C   0  0  0  0  0  0  0  0  0  0  0  0
    4.8503    0.1409    1.4553 C   0  0  0  0  0  0  0  0  0  0  0  0
    4.0854    2.3320    0.5088 C   0  0  0  0  0  0  0  0  0  0  0  0
   -2.2970    0.1561    0.0262 C   0  0  0  0  0  0  0  0  0  0  0  0
    2.8372    0.0151   -0.4078 H   0  0  0  0  0  0  0  0  0  0  0  0
    0.5548   -0.3180   -1.0126 H   0  0  0  0  0  0  0  0  0  0  0  0
    3.3075    1.3915    2.2722 H   0  0  0  0  0  0  0  0  0  0  0  0
    4.5642   -0.7502    2.0233 H   0  0  0  0  0  0  0  0  0  0  0  0
    5.6569    0.6439    2.0025 H   0  0  0  0  0  0  0  0  0  0  0  0
    3.2899    3.0838    0.4775 H   0  0  0  0  0  0  0  0  0  0  0  0
    4.9493    2.7971    0.9940 H   0  0  0  0  0  0  0  0  0  0  0  0
    4.3680    2.0890   -0.5217 H   0  0  0  0  0  0  0  0  0  0  0  0
   -2.3015   -0.7738    0.5866 H   0  0  0  0  0  0  0  0  0  0  0  0
    1.3874    1.9987   -0.5153 H   0  0  0  0  0  0  0  0  0  0  0  0
    0.9148    1.8077    1.2043 H   0  0  0  0  0  0  0  0  0  0  0  0
    2.2132   -0.4672    1.1601 H   0  0  0  0  0  0  0  0  0  0  0  0
    0.1420   -0.5818    0.6894 H   0  0  0  0  0  0  0  0  0  0  0  0
   -1.2092    1.6604   -0.9403 H   0  0  0  0  0  0  0  0  0  0  0  0
    5.2473   -0.1847    0.4875 H   0  0  0  0  0  0  0  0  0  0  0  0
   -3.2583    0.6008   -0.2146 H   0  0  0  0  0  0  0  0  0  0  0  0
  1  2  1  0
  1  3  1  0
  2  4  1  0
  3  5  1  0
  4  6  1  0
  4  7  1  0
  5  8  2  3
  1 18  1  0
  1 19  1  0
  2  9  1  0
  2 20  1  0
  3 10  1  0
  3 21  1  0
  4 11  1  0
  5 22  1  0
  6 12  1  0
  6 13  1  0
  6 23  1  0
  7 14  1  0
  7 15  1  0
  7 16  1  0
  8 17  1  0
  8 24  1  0
M  END
