none
     RDKit          3D

 26 25  0  0  0  0  0  0  0  0999 V2000
    1.2271    1.2527    0.2788 C   0  0  0  0  0  0  0  0  0  0  0  0
    2.4934    0.4112    0.5597 C   0  0  0  0  0  0  0  0  0  0  0  0
    0.1994    0.1837   -0.0833 C   0  0  0  0  0  0  0  0  0  0  0  0
    1.3789    2.2791   -0.8790 C   0  0  0  0  0  0  0  0  0  0  0  0
    3.6502    1.0965    1.2718 C   0  0  0  0  0  0  0  0  0  0  0  0
    0.1821    2.3532   -1.8174 C   0  0  0  0  0  0  0  0  0  0  0  0
    4.8435    0.1408    1.4534 C   0  0  0  0  0  0  0  0  0  0  0  0
    4.1007    2.3332    0.5197 C   0  0  0  0  0  0  0  0  0  0  0  0
    2.8409   -0.0067   -0.3973 H   0  0  0  0  0  0  0  0  0  0  0  0
    0.5091   -0.3573   -1.0032 H   0  0  0  0  0  0  0  0  0  0  0  0
    2.2592    2.0310   -1.4926 H   0  0  0  0  0  0  0  0  0  0  0  0
    1.5522    3.2910   -0.4743 H   0  0  0  0  0  0  0  0  0  0  0  0
    3.3109    1.3900    2.2738 H   0  0  0  0  0  0  0  0  0  0  0  0
    0.0417    1.4116   -2.3799 H   0  0  0  0  0  0  0  0  0  0  0  0
    0.3305    3.1354   -2.5535 H   0  0  0  0  0  0  0  0  0  0  0  0
    4.5614   -0.7552    2.0140 H   0  0  0  0  0  0  0  0  0  0  0  0
    5.6531    0.6390    2.0122 H   0  0  0  0  0  0  0  0  0  0  0  0
    3.3662    3.1456    0.6111 H   0  0  0  0  0  0  0  0  0  0  0  0
    5.0223    2.7167    0.9310 H   0  0  0  0  0  0  0  0  0  0  0  0
    4.2777    2.1235   -0.5479 H   0  0  0  0  0  0  0  0  0  0  0  0
    0.8962    1.7897    1.2070 H   0  0  0  0  0  0  0  0  0  0  0  0
    2.2073   -0.4575    1.1723 H   0  0  0  0  0  0  0  0  0  0  0  0
    0.1110   -0.5604    0.7086 H   0  0  0  0  0  0  0  0  0  0  0  0
   -0.7897    0.5890   -0.2325 H   0  0  0  0  0  0  0  0  0  0  0  0
   -0.7419    2.5802   -1.2707 H   0  0  0  0  0  0  0  0  0  0  0  0
    5.2534   -0.1763    0.4871 H   0  0  0  0  0  0  0  0  0  0  0  0
  1  2  1  0
  1  3  1  0
  1  4  1  0
  2  5  1  0
  4  6  1  0
  5  7  1  0
  5  8  1  0
  1 21  1  0
  2  9  1  0
  2 22  1  0
  3 10  1  0
  3 23  1  0
  3 24  1  0
  4 11  1  0
  4 12  1  0
  5 13  1  0
  6 14  1  0
  6 15  1  0
  6 25  1  0
  7 16  1  0
  7 17  1  0
  7 26  1  0
  8 18  1  0
  8 19  1  0
  8 20  1  0
M  END
