23
Coordinates from ORCA-job 121259
  C   0.01757862866481      1.48875278302424      0.10036651309374
  C   0.21917845906578     -0.00385706390195     -0.01177963227889
  O   0.54990869247684     -0.50749033423744      1.25205072143739
  C   0.68435855962938     -1.90119085089349      1.31455240460488
  C   1.94026646545226     -2.44664957700175      0.60360836478854
  C   2.32457108753827     -3.71568515305857      1.37066367310316
  C   1.83752059872632     -3.47106864843870      2.78697202459644
  C   2.14909855555808     -2.14140694969059      3.40796391741220
  C   0.82018731318553     -2.36200458513140      2.74789800465453
  H   0.93810141993295      1.97278376038586      0.45921974088895
  H   -0.24938737451282      1.92337478980005     -0.87428895781790
  H   -0.78509566824215      1.71358207622033      0.81823417789557
  H   -0.70358442774834     -0.49285999981019     -0.39208467512485
  H   1.01669735038972     -0.22636588202515     -0.75027903299420
  H   -0.22256318743789     -2.37643540368189      0.88090825345134
  H   1.78392338766669     -2.63027072557216     -0.46935875601651
  H   2.72604325358803     -1.67803153549933      0.68468265564912
  H   1.79724242085558     -4.59113417171324      0.95613733306727
  H   3.40375258096828     -3.93389063614617      1.31231610452522
  H   1.69912617118165     -4.33214227817560      3.44698949434866
  H   2.15204262459289     -2.08998762661911      4.49928955604206
  H   2.87454444211861     -1.47628539416587      2.93062089261792
  H   -0.08078254365048     -2.38232469356787      3.36650912205537
