68
Coordinates from ORCA-job imatinib
  C   0.35533816930644     -4.72570246343922      2.00701131035754
  N   -0.34665801769616     -3.82866061275471      2.89539734810845
  C   0.35741826846872     -3.50254229665118      4.10918457586114
  C   1.59816912663243     -2.61778890517190      3.87040390832495
  N   1.43233123745479     -1.85158825318462      2.65048564231320
  C   2.42643849259509     -0.81968352554524      2.49024393875301
  C   2.50903303980213     -0.32876389776447      1.06753769152839
  C   2.76806984026126     -1.24246395513665      0.03859313691826
  C   2.81921646273113     -0.82015656284652     -1.28178259439795
  C   2.56447284546282      0.51610361190067     -1.61579726241646
  C   2.34184022605037      1.43910445115285     -0.58930834022595
  C   2.31989093720501      1.01520407183814      0.73807904754817
  C   2.63694867972027      0.86547584357933     -3.07049181221112
  O   3.34019208037342      0.22328701554804     -3.82842697739300
  N   1.92580614331301      1.94206556203343     -3.54349356760950
  C   0.85525106648010      2.67488304261468     -2.99441645683909
  C   0.85262169153357      4.06296080027931     -3.14571000713799
  C   -0.20068323952936      4.80483562507875     -2.62061544919387
  C   -1.25012846239546      4.20907838734402     -1.92555136228108
  C   -2.36193052822511      5.03853971760023     -1.35142567566621
  C   -1.24159132789744      2.79821323441188     -1.78178766166345
  N   -2.30784474220171      2.24149130507594     -1.08396454284683
  C   -2.67314018360094      0.96030139300815     -0.77371756200767
  N   -3.80473282675618      0.90684148691362     -0.04573080617827
  C   -4.22303716022485     -0.29805568386917      0.29445605992176
  C   -3.55584607739480     -1.46440985863776     -0.07586729477569
  C   -2.39754826217775     -1.30349326684331     -0.84388595805059
  N   -1.95525082626834     -0.08484686994789     -1.17904042206175
  C   -1.59311154196009     -2.46211271163785     -1.28749874965799
  C   -0.25421028986869     -2.30180263340281     -1.65948735617861
  C   0.48599230661798     -3.42250463795035     -2.01272670565556
  C   -0.13754805854188     -4.66973838379609     -1.98753998285304
  N   -1.41621255962505     -4.83909841430551     -1.65657914379927
  C   -2.11862207342868     -3.76385427112162     -1.32286279352417
  C   -0.20328855382848      2.04051708015887     -2.33627486302245
  C   0.07041559721634     -1.40463899217724      2.45837965562166
  C   -0.85666112573598     -2.62174939646120      2.27056991458605
  H   1.27798129586030     -4.29842023969360      1.56216701440776
  H   0.62783645866646     -5.64359822403627      2.55284466477454
  H   -0.30771229697230     -5.02492839063230      1.17970629638459
  H   -0.34748176384068     -2.97415536107595      4.77460912369623
  H   0.64722158644524     -4.42445928971087      4.63825687270117
  H   2.51000241363364     -3.23247751755600      3.77111042107362
  H   1.75356963353624     -1.96144314438739      4.75847350422487
  H   3.40241038309565     -1.25010238601973      2.77543039049401
  H   2.25655340630934      0.04203625315018      3.17612798887879
  H   2.91508377870595     -2.29565836966276      0.29081080274542
  H   3.05379032968586     -1.51228000729614     -2.09349976418360
  H   2.17963076884413      2.49325485291978     -0.81899559120138
  H   2.13504936682513      1.74236302360713      1.53377331459549
  H   2.18557741811483      2.16933450838017     -4.49841248283216
  H   1.68187419096282      4.55555204563038     -3.65772299751037
  H   -0.20132243812785      5.89148221739083     -2.74110449433512
  H   -3.34356909601432      4.76715975047951     -1.77768362313158
  H   -2.43763336286709      4.92909705243759     -0.25515385632827
  H   -2.20217311713346      6.10498119348890     -1.55863888953642
  H   -2.98203212815095      2.89656589118317     -0.70864299219540
  H   -5.13625232686885     -0.34784932100475      0.89924926711110
  H   -3.91253544063398     -2.44123292613436      0.24627441729645
  H   0.19642110426171     -1.30861305820228     -1.63945383449721
  H   1.53622828009856     -3.33375348332476     -2.29562761518778
  H   0.42343011165225     -5.57494535447092     -2.24680387411998
  H   -3.17158822137557     -3.93994922658785     -1.07685409088878
  H   -0.23205478274188      0.95804382142197     -2.24056026334219
  H   0.02724952982115     -0.75970454301708      1.56649170233421
  H   -0.27268708836225     -0.77443552165841      3.31283840314669
  H   -0.98795202751969     -2.82236131558114      1.19951049405784
  H   -1.85757631977832     -2.37599996592961      2.67365080917243
