22
Coordinates from ORCA-job frag_300
  C   1.51684018097809     -0.35358375703723      0.14014841493785
  C   2.97384410388880     -0.06610983194848      0.46769093113694
  C   3.43844107689082      1.27494300244442     -0.07889123098758
  S   3.18231030901884     -0.15286904923153      2.29346016946263
  C   4.94576038271143     -0.56004753768677      2.36085402237185
  C   5.20675684835956     -2.04978800528852      2.14362891856507
  N   6.59277351576135     -2.34611359545021      1.85866508153297
  C   7.09769545244473     -2.14974932140600      0.61690799434150
  O   6.45139343078941     -1.76153372687008     -0.33155061912224
  H   1.35645395731062     -0.30998797297483     -0.94882223328841
  H   0.85194383769702      0.39208132504993      0.60582380582398
  H   1.21436140578636     -1.34867956566980      0.49743891339438
  H   3.60934746142836     -0.86215321043677      0.04419873939607
  H   2.83488772188230      2.09673470077922      0.33663795010668
  H   3.34552222757949      1.29347217073323     -1.17779766595666
  H   4.49346123188811      1.46884455551337      0.16555804497958
  H   5.32009409723692     -0.22606704659681      3.34114913210807
  H   5.47537805473489      0.02462611893421      1.59275599232976
  H   4.61081048287719     -2.39586867828402      1.28572154835562
  H   4.88176184978446     -2.62967234124833      3.01974423052123
  H   7.22146165735109     -2.61444180252873      2.60415424528478
  H   8.18580071360009     -2.39423643079626      0.55052361470590
