14
Coordinates from ORCA-job frag_73
  C   1.62919170322083     -0.09855452887326      0.00989567356009
  C   0.68952513567678      1.12888879125568     -0.08653555475329
  C   -0.45587158639359      0.09813979036762     -0.06953168482682
  O   -1.64457766181546      0.15715965610161     -0.22725463994748
  N   0.42839368093734     -0.91621044229607      0.13213569763644
  N   0.72448300342882      1.93053027518167     -1.26958514740829
  C   1.80413027929274      2.69861938451773     -1.55948087007027
  O   2.81842615222867      2.71097523405943     -0.90033427681570
  H   2.29683939716790     -0.11206700189626      0.88439875794751
  H   2.21070876361670     -0.27775529719395     -0.90755716690122
  H   0.72443628104328      1.74306910334714      0.83014087386533
  H   0.28483420180319     -1.91703347528083      0.21573463669635
  H   -0.12297656175024      2.00823492076569     -1.82100032201942
  H   1.66185721154301      3.31220358994380     -2.48132597696324
