13
Coordinates from ORCA-job frag_24
  C   1.23177755992788     -0.58247539088308     -0.59727416941566
  C   2.28173226052412      0.06213267551675     -0.08956813378491
  C   3.13424417786650      1.03543631878565     -0.83856495419379
  C   4.61983933281249      0.82329208351939     -0.56691081734199
  O   5.03133592708040      0.43453993182861      0.50583820567784
  N   5.44497911595340      1.13831210943382     -1.59850083503529
  H   0.64543873749908     -1.27747421985933      0.00953653983413
  H   0.91452134758989     -0.44087667796132     -1.63612028167099
  H   2.58921323849880     -0.10727969169924      0.94801868379355
  H   2.91592514874300      2.06118922066590     -0.48428455540266
  H   2.90765176479051      1.02019174301689     -1.91678874275282
  H   5.10305506823154      1.44783752619797     -2.49551603553451
  H   6.44258632048237      1.04817437143800     -1.45466490417289
