16
Coordinates from ORCA-job frag_153
  C   1.18202530776351     -0.04332473863082     -0.04566269868911
  C   2.68876267540992     -0.11355190243364      0.11924961099217
  S   3.10533832870302     -0.85061727674258      1.72539716652309
  C   4.91207836989193     -0.78066568026297      1.58867209536061
  N   5.48725347150296     -1.29154753460464      2.80800063735573
  C   6.83211573832325     -1.35368722280833      2.95825248401048
  O   7.62637476953863     -1.00060760012127      2.11719433171828
  H   0.92669792084408      0.40198680249919     -1.01895821662502
  H   0.72240817612981      0.57400067242853      0.74102971157267
  H   0.72767256224444     -1.04469989108303     -0.00223189921992
  H   3.13643325312708      0.89259915176952      0.06596149093292
  H   3.14221436456112     -0.72500867413535     -0.67817948289036
  H   5.24058332515149      0.25931379021036      1.41605819399328
  H   5.25330503587938     -1.37782152467898      0.72506325270071
  H   4.88377754164584     -1.60547257763022      3.55806019905287
  H   7.13155915928352     -1.76849579377578      3.95149312321160
