19
Coordinates from ORCA-job frag_339
  C   1.37301941739702      0.31831371685160      0.09451546306960
  C   2.84021020052054      0.65577866541350     -0.13436532259966
  C   3.61708718168239     -0.49705789715924     -0.74892627661936
  S   2.86850067185377      2.17109989067479     -1.16820905475601
  C   4.64317093923063      2.55799744892082     -1.20390149643752
  N   5.21078574958068      2.86826896516293      0.07661157968264
  C   6.07212819589497      2.03752370573265      0.72030087179420
  O   6.51748290543625      1.00522949574143      0.27261316071071
  H   1.28896126999143     -0.55253903507442      0.76324917499811
  H   0.87528282134413      0.06349379687352     -0.85470174993144
  H   0.82906340183395      1.15826752226585      0.55235467749306
  H   3.29703030307495      0.93085799406235      0.83230780224214
  H   3.24213622738932     -0.72495610867835     -1.75882595674701
  H   3.49948709271882     -1.39859968274267     -0.12535947358235
  H   4.69416124914852     -0.28000656036556     -0.80088592422197
  H   4.72631756569410      3.41498063956502     -1.89071825267239
  H   5.22085923340538      1.72418044519240     -1.62601253667042
  H   4.83650791039484      3.66043668582285      0.58527419426353
  H   6.34560766340819      2.42363031174049      1.73137911998415
