12
Coordinates from ORCA-job frag_138
  C   1.05769414132941      0.09473453930300     -0.01505632905817
  C   2.57110573989825      0.18870175740144      0.04347946774345
  S   3.07330807605391      1.65814786943152      0.98509113905812
  C   4.86410820071330      1.48272722112054      0.87369926660387
  H   0.74780430159050     -0.79446017281524     -0.58502617518894
  H   0.62295060046834      0.98009883167425     -0.50382933415286
  H   0.62420623430255      0.01910591247335      0.99385714274685
  H   2.99740476420943      0.25289359842395     -0.97197459165611
  H   2.99906326627424     -0.70685459268718      0.52525583795367
  H   5.30988572513095      2.32549751573789      1.42053418664965
  H   5.21047999099048      1.52135057282194     -0.17074518817134
  H   5.20788895903863      0.54465694711454      1.33721457747181
