16
Coordinates from ORCA-job frag_188
  C   2.76196682608879     -1.23011328677445     -0.75224255702438
  C   2.43792708416167     -0.04787046295284      0.14434176357726
  C   2.94250752306088      1.28872123540755     -0.42285984852437
  C   2.47559077012632      2.44800752593886      0.46575582995191
  O   3.22614465503016      3.13537152007148      1.09734996757512
  O   1.14848134198995      2.65101793398863      0.52111025883064
  N   4.37265559236110      1.26564318630483     -0.59413889108550
  H   2.44618308656417     -2.17801282286751     -0.29157837302856
  H   3.84253281318615     -1.27179072650350     -0.94602605175594
  H   2.25288929300466     -1.14250888754511     -1.72518972580054
  H   2.89526512272976     -0.18705230955303      1.13995921222646
  H   1.35046636257841      0.00738330656405      0.32515638103131
  H   2.47583106097517      1.43195979623997     -1.41802650559217
  H   0.69140071735543      2.02161112751622     -0.04998378007770
  H   4.80717443004987      1.34374653462251      0.32631692963615
  H   4.67288332073748      2.10028632954233     -1.09364460993968
