12
Coordinates from ORCA-job frag_243
  C   0.97210515100980      0.01044120917297      0.08776847722987
  C   0.38631146102992      0.36815704057350     -1.26508699710751
  S   -1.42658968135834      0.47419734313946     -1.27749417620515
  C   2.48869443970679      0.02684376827652      0.08146917444897
  O   3.15236607796239      0.30290075794276     -0.87520394857222
  O   3.07028692578480     -0.29525108352854      1.24993577112142
  H   0.63353718310989     -0.99225113938558      0.40566290721234
  H   0.60724504249231      0.71037519883323      0.86004652756677
  H   0.73703229958988     -0.32957539859575     -2.03862252419789
  H   0.73931462430594      1.36331493961995     -1.57279171531821
  H   -1.66473921397345     -0.84227348726008     -1.08976954984776
  H   2.40253569034007     -0.48847914878844      1.91878605366937
