9
Coordinates from ORCA-job frag_28
  C   1.09020068775246      0.05706875170860      0.07813982077222
  N   2.53158532366555      0.06169074054753      0.07784784350385
  C   3.23124810065207      1.15185844515821     -0.31456312121577
  O   2.73125721845595      2.18782928723425     -0.68918262650321
  H   0.72633072812978     -0.91873551027669      0.42472117094206
  H   0.69089986563050      0.24574357827305     -0.93125572733478
  H   0.68861305901454      0.84073610662836      0.74030930598136
  H   3.03921827461772     -0.76059821932962      0.37406070460091
  H   4.33674674208142      0.99130682005630     -0.25877737074665
