19
Coordinates from ORCA-job frag_142
  C   0.96025847777953     -0.03689273515562      0.23450758000941
  C   2.46512882309430     -0.08084847685730      0.43551054100389
  S   2.97442858714741     -1.75386053266760      0.94158591927297
  C   4.80107418046266     -1.67713743303625      0.68138371242536
  C   5.44909257161955     -0.57791448321797      1.52699663591933
  N   5.32031757382194     -0.91134158142393      2.92833962013313
  N   5.29259894974082     -2.99494213108639      0.98008990454512
  H   0.63895768091257      0.97226055122111     -0.06635227008515
  H   0.42678610692493     -0.29632581407372      1.16228800371759
  H   0.64366428982502     -0.74665976484160     -0.54457959437284
  H   2.76835763904606      0.65949188237502      1.19424221240925
  H   2.98747946428349      0.17429766654086     -0.50281125644772
  H   4.95539002510367     -1.45387281282182     -0.38799135762478
  H   5.03787491327274      0.41123673355196      1.23533034657137
  H   6.52217332935667     -0.55530720169086      1.26278724157045
  H   4.33147609741112     -0.94336818162392      3.17831244941140
  H   5.77452855639650     -0.22408206055476      3.52256936353099
  H   5.51560136549628     -3.02757808934117      1.97609176438819
  H   6.14611136830469     -3.18505553529601      0.46239918362202
