19
Coordinates from ORCA-job frag_251
  C   1.08338125037394      0.01439713805118     -0.06465631373600
  C   0.44204296154968      1.31945198782449     -0.49213908576123
  S   -1.36233039367151      1.16806831302138     -0.43310013440142
  C   -1.80884095087700      2.82894790267812     -1.00353914537978
  C   -3.31696235972996      2.96727976167047     -1.05346906462858
  C   -3.77212285388214      4.32283457644528     -1.51791123483732
  O   -3.03444179454648      5.22132112596569     -1.82107080847109
  C   2.58579644421755      0.06012135091391     -0.08076746696455
  O   3.23419082204209      1.02179884628080     -0.39431517026704
  H   0.76537314632836     -0.82475376843549     -0.71104990292245
  H   0.76778445342541     -0.27796966695772      0.95409972242705
  H   0.76279897903982      1.58015374436661     -1.51331228744791
  H   0.77232082677038      2.13665572611945      0.16857812703782
  H   -1.37917975736672      3.00989678153512     -2.00194299758059
  H   -1.38170737275652      3.58594952656427     -0.32661058090354
  H   -3.77486637850776      2.78121523855478     -0.06388326159520
  H   -3.77187226119405      2.21261580995843     -1.72194145007835
  H   -4.88596855572641      4.45111311336492     -1.56502462008245
  H   3.08540379451132     -0.89519750792172      0.22965567559264
