12
Coordinates from ORCA-job frag_12
  C   1.38331653242612     -0.22162446671861      0.00543556294997
  C   0.88141903075481      1.08009594815308      0.01454460424542
  C   -0.49684483921669      1.29620336479743      0.00980158324629
  C   -1.37320320522658      0.21109291661814     -0.00445095990039
  C   -0.87126121093244     -1.09066764763946     -0.01374234765503
  C   0.50695820222203     -1.30681345494389     -0.00864244750731
  H   2.46336911451762     -0.39157866298309      0.00940410247073
  H   1.56787682742831      1.93058428465164      0.02522539538360
  H   -0.89021494827070      2.31601161969002      0.01753544366566
  H   -2.45327470095125      0.38090032915276     -0.00834528143197
  H   -1.55767351714364     -1.94118429357426     -0.02539455904104
  H   0.90033271439240     -2.32661993720375     -0.01547109642593
