10
Coordinates from ORCA-job frag_79
  C   1.11806212539259     -0.40669637348052     -0.07648981472070
  N   0.35781725883467     -1.18852777302958      0.85391586930351
  C   -0.43120541374621     -0.57671491264973      1.77714101715995
  O   -0.62599103197354      0.61627492711917      1.81953124795116
  S   2.64498867942884      0.34134396339856      0.59984020830298
  H   0.47709315940166      0.39889123218142     -0.45805189983915
  H   1.43298824983914     -1.03389767961370     -0.92126220421168
  H   0.62216657618291     -2.15302965372114      1.01446089226266
  H   -0.89795093872155     -1.29762598991759      2.49033800883751
  H   1.98883133536149      1.23838225971312      1.36837667495375
