15
Coordinates from ORCA-job frag_65
  C   1.02081626446427     -0.20917478722173     -0.05342130517429
  O   0.33921979826952      0.26745527874313     -0.92648651135211
  N   2.29879756310809      0.18265677483418      0.21717863957543
  C   2.94778150202919      1.15592357410004     -0.58801095004841
  C   2.91421515428327      2.67340268744445     -0.18355177988426
  N   4.36238287938331      2.62026468635404     -0.17114749340291
  C   4.47147793097109      1.27650901588865     -0.39025881894733
  O   5.38889453646403      0.50522535424398     -0.38734048930502
  S   2.08920431497819      3.14715158858954      1.35151360039739
  H   0.67365673094735     -1.02587721167001      0.62365271809339
  H   2.84327296246499     -0.33649326693163      0.89563339246699
  H   2.65458306804493      1.03176419429777     -1.64302345828134
  H   2.48584057922399      3.33680480858201     -0.95124621979957
  H   5.05533305860713      3.32559299988991      0.05792295859479
  H   2.57992365676062      2.13189430285566      2.09578571706723
