22
Coordinates from ORCA-job frag_193
  C   0.97849376788191     -0.26183289171374     -0.04559982262712
  C   2.47480758641665     -0.27660091669116      0.22576127354247
  C   3.06230526232149      1.07414591769749      0.64033331755916
  C   2.65647280610580      1.50194102663421      2.06456551333871
  O   1.58095463927764      1.27756087449309      2.55078400865404
  O   3.61542165039486      2.17558107082853      2.68098565800596
  N   4.51638984117320      1.16082082487902      0.53315598887534
  C   5.04124042540380      1.53419656679667     -0.77099962748153
  C   6.55612821223730      1.53539180684303     -0.77234356798858
  H   0.62545007948650     -1.25654588899898     -0.35618499167529
  H   0.73342308975558      0.44687088320502     -0.85360864584907
  H   0.42745227352839      0.04295578685750      0.85342704995947
  H   3.01208549468170     -0.60299522067767     -0.68213809640231
  H   2.70920019247584     -1.01758265005540      1.01030006031758
  H   2.64377137833393      1.85782925311826     -0.01873117591590
  H   4.37365730409531      2.12395788607313      2.04302539886841
  H   4.92928372496761      0.27524383725985      0.82857966444661
  H   4.66425395661642      2.54357534309438     -1.00688540345713
  H   4.66704907488232      0.86783572980362     -1.57520265907817
  H   6.94910300213961      2.22139178046081     -0.00707414746601
  H   6.94720921688704      1.84724821443625     -1.75160202325202
  H   6.95604702093707      0.52961076565608     -0.56274777237463
