19
Coordinates from ORCA-job frag_150
  C   0.99930704295974     -0.06044895958827     -0.07070509536667
  C   2.50869804400354     -0.08545689260593      0.08184820637953
  S   2.96466822166472     -0.78698485576222      1.69398851352344
  C   4.76873416962592     -0.69024392976676      1.55202080014034
  C   5.42078363248647     -1.37765210908412      2.74675771394313
  N   6.86208834416936     -1.29054444867358      2.71697567150183
  C   7.60961080588860     -2.12307532983641      1.95086293771226
  O   7.16315136158542     -3.01189094971012      1.26274755052148
  H   0.71928416516242      0.36322923982930     -1.04717601399585
  H   0.52888274471835      0.55297784908444      0.71288748733684
  H   0.57585316091927     -1.07439209473332     -0.00757946563960
  H   2.92598964454719      0.93268824501328      0.00549568363403
  H   2.97254841244066     -0.69549574940548     -0.71083400141442
  H   5.08584313725192      0.36544797769757      1.49953033465588
  H   5.09586347953153     -1.19798874835436      0.63049958485724
  H   5.14062129386839     -2.44215750041724      2.74572819265860
  H   5.05887176848179     -0.93723188094433      3.68875210837160
  H   7.32715947862344     -0.53698985381559      3.20599549528019
  H   8.70354109207123     -1.90469000892686      2.02940429590011
