14
Coordinates from ORCA-job frag_242
  C   1.06765904156536      0.02805836444465     -0.03107893349586
  C   2.58672286216741      0.03320465903115     -0.03704409434686
  C   3.18560510073787     -1.06194456236735      0.82714487197987
  C   4.70095029575207     -1.06400502533783      0.83091006251310
  O   5.38125995857801     -0.29048039943475      0.22257223616167
  O   5.26843887842458     -2.02251211483429      1.58795618723722
  H   0.66363200773282      0.83098003018161     -0.66504660838121
  H   0.66609443735548      0.17504782765834      0.98472107724764
  H   0.66465361458684     -0.92584640209125     -0.40868704972208
  H   2.97232143592726      1.00485385592573      0.31090081707104
  H   2.97040179221663     -0.07989052254684     -1.06364054035642
  H   2.84154490902708     -2.05783765370266      0.49002086908832
  H   2.84025637549659     -0.96690270556595      1.87387274129766
  H   4.58805929043197     -2.56222535136054      2.00729836370589
