21
Coordinates from ORCA-job frag_196
  C   0.92851503970303     -0.20290233184467      0.09047955869490
  C   2.42677838681355     -0.01245969964282     -0.08816564662531
  C   2.94856692768422     -0.53536047941266     -1.42298673680268
  C   2.50076516012795      0.29156271766601     -2.62069509423910
  O   1.81482862325036      1.27447075061325     -2.56076788239978
  N   4.38107456474890     -0.64447823348804     -1.48108431784708
  C   5.46135322373599      0.31134192108387     -1.26319162508921
  C   6.44783003214203     -0.86305353488400     -1.45803166630946
  C   5.19862405659409     -1.73525661266822     -1.63794610029747
  O   4.95125878941971     -2.89374057853257     -1.83064726227084
  H   0.60373959462556      0.15342307174601      1.07913468536514
  H   0.65065268484645     -1.26659043454917      0.01432078922614
  H   0.36480178964207      0.35633164490090     -0.66893650682069
  H   2.97511707990491     -0.53753932051010      0.71055405396332
  H   2.68013181253704      1.05766181861662     -0.00374927103330
  H   2.58589177732414     -1.56733597010840     -1.59730843783643
  H   2.91191070514270     -0.07954903318387     -3.59624350785188
  H   5.46342644303281      0.76117905587245     -0.25679304299431
  H   5.51747033112249      1.11312894794658     -2.01838310807545
  H   7.05803764821087     -1.12771004423482     -0.58284352941092
  H   7.08762532939102     -0.80652365538633     -2.35021535134555
