14
Coordinates from ORCA-job frag_161
  C   3.39178086708316      1.49549912287306     -0.39914485582787
  S   2.63399505363107     -0.06055219969257      0.11559438438154
  C   3.27385014895332     -1.14712555177308     -1.18462500633734
  C   2.88974016130656     -2.62949184824781     -0.97274437828667
  C   4.40210021330990     -2.88726698000708     -0.88626247747088
  O   5.10758105006720     -3.83922821924386     -0.71453877307683
  N   4.66153288653001     -1.55747257849403     -1.09747696734362
  H   3.01455260056126      2.27696767524564      0.27493488658483
  H   3.10702986879300      1.75700152403409     -1.43007842020410
  H   4.48893119241520      1.46443572084762     -0.31198998738448
  H   3.00065672894225     -0.72471076786951     -2.16664674489457
  H   2.38424773866558     -3.11582605517752     -1.81816198488086
  H   2.34931753291045     -2.84296257961376     -0.03869043220923
  H   5.52938395683102     -1.03276726288120     -1.10986924304990
