18
Coordinates from ORCA-job frag_130
  C   1.14743315125207      0.21663749328268     -0.02931977938530
  N   2.55750534236463     -0.01931279526400     -0.25953382190811
  C   3.02283151607271     -1.33448515685801      0.09612534463975
  C   2.53035573360240     -2.38101596568671     -0.90483250775211
  N   2.93982137754296     -3.71359658648289     -0.56308350249726
  C   2.05817922970548     -4.69450671366551     -0.24484634027586
  O   0.85314110813517     -4.59053584392497     -0.27281525467787
  S   4.84768495799088     -1.33299413635071      0.21202544503837
  H   0.91560451632682      1.26879818630211     -0.24898246051706
  H   0.81431495157589     -0.00175660752997      1.00764274647753
  H   0.53049025974978     -0.39247312565672     -0.70675086429422
  H   3.11797095782140      0.67078209720155      0.23340283323050
  H   2.71132671335469     -1.66170578689588      1.11450599538390
  H   2.88281856692214     -2.09060258887538     -1.91006835211229
  H   1.43034855041939     -2.39127866482582     -0.92659392086405
  H   3.93197690542837     -3.88171545914818     -0.43672675262934
  H   2.57546649729128     -5.64052508542610      0.04731245570977
  H   5.03662966444392     -0.86981326019547     -1.04536126356635
