16
Coordinates from ORCA-job frag_156
  C   3.67272177129129      1.24950500508277      1.04362465768352
  S   2.71410115999556      0.08196103536489      0.06194758306251
  C   3.42751212989456     -1.51326809150618      0.67305388593198
  C   2.84634805673332     -2.60865621501565     -0.22950363218357
  N   3.47467156876624     -2.55442136628122     -1.53366386645544
  N   4.86157539566233     -1.47483526227624      0.68564813046347
  H   3.67184783022819      2.21582236023845      0.52071321916665
  H   4.70117303438646      0.86344900302955      1.11353716093085
  H   3.24873508373289      1.38312567696138      2.05061698170147
  H   3.05803356146102     -1.65843223434476      1.70195571155398
  H   1.73915874722661     -2.52274314739890     -0.23545049182276
  H   3.08697236839305     -3.58205880346659      0.23345867346061
  H   3.20102792851583     -1.70063033971711     -2.01843079860265
  H   3.19368396754444     -3.34093391495696     -2.11236210026563
  H   5.18885426679237     -1.74323521402287     -0.24470427419517
  H   5.23348312937577     -2.14164849169054      1.35765915957016
