13
Coordinates from ORCA-job frag_241
  C   0.93682471876176     -0.10311321391475      0.02548110157995
  C   2.45612338440096     -0.08892181001500      0.01130965111465
  C   3.03411266631866      0.90532691692530     -0.97876373816132
  C   4.53505204629622      0.94469244018357     -1.01792704457274
  O   5.25588061609866      0.26316203152764     -0.33921160141984
  H   0.54942317339399     -0.83276588014854      0.75203377377630
  H   0.52617140768178     -0.36919662677107     -0.96211807823723
  H   0.52621555783302      0.88335358587970      0.29580567174655
  H   2.84776124350986     -1.09209380303511     -0.22493068381596
  H   2.84778469179205      0.14306472193157      1.01546839125601
  H   2.68704566099779      1.93671544385010     -0.77316975982523
  H   2.68707596357190      0.70406230213295     -2.01101583251973
  H   4.96662886934334      1.67951389145364     -1.74966185092140
