9
Coordinates from ORCA-job frag_137
  C   1.15494790812671     -0.02837161090498     -0.03563398135203
  S   2.95141398055277      0.11485919862082     -0.10248216492442
  C   3.40138488151473     -1.48000068761174      0.61090972382692
  H   0.73822144363831      0.90086607634616     -0.44953950015572
  H   0.79608912610860     -0.14155722720839      0.99943365225749
  H   0.79338141091347     -0.87389193570714     -0.64192777057209
  H   4.49961018193811     -1.52651232359003      0.63547040563927
  H   3.02860315793754     -2.31665658945532     -0.00060163266141
  H   3.02374790926975     -1.58343490048939      1.64027126794199
