18
Coordinates from ORCA-job frag_221
  C   1.01179362659212     -0.11559357444672     -0.08876447679312
  C   2.52234792345266     -0.09793591279782     -0.01181368225855
  C   3.00890308887602      0.11206942959826      1.43808633591801
  O   2.24977987180863      0.17998422270324      2.36568389743672
  O   4.31985777388148      0.22749710818923      1.57219742831787
  N   3.07437718106629     -1.31738741960442     -0.58957816251361
  C   4.35358717378752     -1.41081115350921     -1.00660302809627
  O   5.15575453320445     -0.49705615236066     -0.82129102778760
  C   4.75995618549745     -2.68225830632063     -1.69888546069339
  H   0.60393201752601      0.82058181448251      0.31271522325587
  H   0.60245022349986     -0.93010973220252      0.52775638265553
  H   0.67588607148768     -0.23295698263816     -1.12943223651168
  H   2.93027041682202      0.74226648295407     -0.60331264778981
  H   4.76777037734254      0.12736979638730      0.69314784053539
  H   2.45525886859233     -2.11149161824845     -0.69299549830152
  H   3.92196666696713     -3.35933581739824     -1.91192217940329
  H   5.49962592749070     -3.20150846853082     -1.07153156259160
  H   5.26318207210510     -2.41542371625694     -2.63835714537895
