22
Coordinates from ORCA-job frag_199
  C   2.88342244685869     -1.42396106540936     -0.33699201374721
  C   2.44319453498752      0.00255107342209     -0.05604227904250
  C   3.01243874650509      1.01458394253816     -1.06450452427475
  C   2.48826413421526      2.39627605485082     -0.75314954198831
  O   3.18556348576064      3.34494925265960     -0.51215886003728
  N   4.44201047112109      1.03542891131385     -1.12810926591569
  C   5.12961606522959      0.43519090992091     -2.12717298346515
  O   4.62804455306192     -0.27748950753298     -2.97704737164718
  C   6.63119725514243      0.69916477507503     -2.08182457769814
  N   6.97583242046072      1.85400143001994     -1.28123055292656
  H   2.42803602229101     -2.12378719353076      0.37914278971926
  H   3.97653951914724     -1.51822373448984     -0.25387616314648
  H   2.60848072573903     -1.73464346706721     -1.35563657499638
  H   2.75580092888324      0.30226204223521      0.96000546619237
  H   1.34143698142137      0.07262176204124     -0.07721039357792
  H   2.64020281114921      0.73151578348008     -2.06848944114999
  H   1.37007595498807      2.47578143176206     -0.73283983859597
  H   4.96856539318790      1.70253435129166     -0.56426327767996
  H   6.97021880257400      0.71722923614655     -3.13404398817654
  H   7.08111910650423     -0.20225347493946     -1.63420626183915
  H   6.87896194601619      2.71589671381063     -1.81325403792677
  H   7.93317769475548      1.81257077240177     -0.94579630807967
