21
Coordinates from ORCA-job frag_192
  C   2.90027884376233      0.60748096751212     -1.27953580992180
  C   2.57514784878754      0.02827724097956      0.08809777236747
  C   3.03723098640971      0.89749018268090      1.24484440174775
  C   2.52169766807172      0.37000590624268      2.59949112791199
  O   1.89659029107032     -0.65003360289946      2.70040306450481
  O   2.80928306322498      1.14106866492014      3.63606453149556
  N   4.48846241507806      1.02665130737553      1.24652599892574
  C   5.12947214722067      2.03588195697373      1.87139152930981
  O   4.51996391852395      2.84838499395163      2.56462530502839
  C   6.61911845550357      2.12276391478369      1.68750313473196
  H   2.53890368835655     -0.05147721796605     -2.08229994229116
  H   3.98293494119089      0.74501307363240     -1.42821749472065
  H   2.42622352001060      1.59203064424645     -1.41758509367887
  H   3.00654632936097     -0.98002511390729      0.21139680649182
  H   1.49142959987645     -0.11601271708650      0.20250070281947
  H   2.63231473974824      1.92084651986297      1.13233665435675
  H   3.33405518914824      1.92999702547390      3.34508505509637
  H   5.02460062131573      0.31908957147045      0.76036995404576
  H   7.02642181817553      1.37753406536682      0.99113462037142
  H   7.10141104264294      2.01000789065959      2.66915469921466
  H   6.86151287252095      3.13152472572671      1.32451298219271
