22
Coordinates from ORCA-job frag_331
  C   0.86802843326612     -1.18841274799968      0.35761597544951
  C   2.35519591622524     -1.46665087508121      0.32020251609052
  O   2.83791924290929     -2.39144564299029     -0.30295138769737
  N   3.11399091783686     -0.58737822274950      1.03773042451640
  C   4.54643143733626     -0.67355836251937      1.10945126042682
  C   5.09112542602529     -1.28317251813442      2.41154542328614
  C   4.64892800941327     -2.73162948031061      2.57142709425313
  C   6.61238859111792     -1.17297732069370      2.40782280334764
  S   4.51408415194968     -0.27892085009350      3.85731368950934
  H   0.34862077608708     -1.97078862728632     -0.20673882178223
  H   0.64509639050084     -0.20838647882667     -0.09227189433788
  H   0.49310418636868     -1.17545572812112      1.39287368508224
  H   2.66163566275833      0.15473955671255      1.55543357570746
  H   4.97985347019848      0.33150298401358      0.97845800051658
  H   4.87122165988774     -1.29991544596694      0.26324842268027
  H   5.02444571879364     -3.33599109840591      1.73052024556698
  H   3.55188592153007     -2.81813502979601      2.56646342798654
  H   5.02690046474937     -3.15372382627112      3.51380304900115
  H   7.02069683666290     -1.71576187613877      1.54027298764062
  H   7.04363320327526     -1.60983053108016      3.32037218742016
  H   6.94316367945974     -0.12463060825527      2.33758673944243
  H   3.25324990364792     -0.76287727000556      3.88042059589352
