20
Coordinates from ORCA-job frag_247
  C   1.07936839260556     -0.03274917656360      0.01452760788685
  C   0.43958669998750     -1.21186945958103     -0.69023348214971
  S   -1.36484745713993     -1.07533643753644     -0.60396888681306
  C   -1.80857227924818     -2.59316785381451     -1.48922851241755
  C   -3.31711710646685     -2.71334732156001     -1.56874739711425
  C   -3.75238309613631     -3.96488932371522     -2.30607510687782
  O   -2.99728649395032     -4.76439974208036     -2.77703055832363
  O   -5.08203515892072     -4.13317387465371     -2.40740938940132
  C   2.58196069364498     -0.07263126410701     -0.01142334421687
  O   3.23044257195050     -0.93877045957568     -0.53357719789564
  H   0.76351487454635      0.02804296958483      1.07249071528965
  H   0.76150863793301      0.92826072704583     -0.43128384820514
  H   0.76618697790003     -2.15385025297283     -0.22177264296255
  H   0.76321833094986     -1.24499902325856     -1.74258884531644
  H   -1.38857558775757     -3.46962322770856     -0.97169530552327
  H   -1.37921170937846     -2.57812785906445     -2.50305522128067
  H   -3.75010030698394     -1.83488783857382     -2.08029265881408
  H   -3.76032768619847     -2.72771086689197     -0.55649473243459
  H   -5.54858175852369     -3.40657685157013     -1.97748275858489
  H   3.08085146118663      0.78840713659725      0.50614156515497
