12
Coordinates from ORCA-job frag_29
  C   0.99735092949851     -0.03167005443344      0.00398162308783
  C   2.50881801143588     -0.08013017645686      0.08314875586081
  O   3.10165286144106     -0.61955786135532      0.99614306914898
  N   3.14749708124648      0.53354664099072     -0.95524696086036
  C   4.58014815298767      0.59329092188119     -1.05643158702823
  H   0.58418241415352     -0.55005636702475      0.87644072295173
  H   0.63468689866633     -0.52106920933482     -0.91363359985293
  H   0.63684497779677      1.00866513802629     -0.00384700856570
  H   2.58860462463974      0.96000597413463     -1.68140823050214
  H   4.99160593949456      0.07437198265286     -0.18052149979449
  H   4.94946997941324      1.63200869989964     -1.05512430081195
  H   4.94953812922622      0.09259431101987     -1.96700098363355
