19
Coordinates from ORCA-job frag_261
  C   2.85311555659858      0.08673226827923     -1.48906880590333
  C   2.40299728546349      0.04697166523007     -0.03909034536595
  C   3.00266271478686      1.17030286149319      0.81040028060500
  N   2.56486153768330      2.48597430049458      0.42501465281165
  C   3.33707124088443      3.32552985098054     -0.32255532963451
  O   4.45012100262662      3.02580130518455     -0.70819207731108
  C   2.71664990952448      4.66733532961980     -0.64018142555827
  S   0.57299326214044     -0.00303406464392      0.10888200523239
  H   3.95191090389014      0.05383307265309     -1.55375185185424
  H   2.52902476536272      1.02204288472109     -1.97136770958154
  H   2.43209690806973     -0.75505224236239     -2.05643230063167
  H   2.71125686510123     -0.90947381630667      0.41685331143672
  H   4.09924367241005      1.15774214694149      0.70427599236909
  H   2.75420591692034      0.99957802301553      1.86983055940362
  H   1.63609217685812      2.77510858868520      0.70040216181590
  H   1.70748356070259      4.80647706246940     -0.22802332460454
  H   2.68217114266366      4.78525078142071     -1.73268746371394
  H   3.37683039050090      5.45559200290257     -0.25179462663915
  H   0.34121118781233      1.04888797922193     -0.70771370287613
