22
Coordinates from ORCA-job frag_335
  C   2.87084998543103     -1.41568958633595     -0.50660286395174
  C   2.57522508650326      0.00301927673518     -0.04743500539090
  C   1.08379040196356      0.31083742469765     -0.07334368850342
  S   3.13273942269404      0.31200252759086      1.67009994056077
  C   4.92938012798871     -0.02281868623503      1.61661662736826
  C   5.66195230454745      0.78785081621485      0.54416760015523
  N   7.08704767518010      0.51879584187101      0.63217213360853
  N   5.40574899638252      0.22209148501961      2.95741708065437
  H   2.47847504567574     -1.58043919510482     -1.52385242992376
  H   2.39984308090401     -2.14537901895766      0.16993930834320
  H   3.95067866366354     -1.62734780928067     -0.53236251092619
  H   3.08833289912412      0.72077650281887     -0.70944657729462
  H   0.53034779600914     -0.36787377326439      0.59501583440452
  H   0.68768500298025      0.18237612087325     -1.09306165921354
  H   0.88090401346401      1.34403021591035      0.24579110255838
  H   5.07057976348456     -1.09940507730837      1.40310408140823
  H   5.48353408067705      1.85582471362756      0.75617642206392
  H   5.22810473386609      0.58611512544535     -0.45584119142610
  H   7.31139986201276     -0.37454213297938      0.19805526107832
  H   7.62575296126635      1.22438803251121      0.13737056413745
  H   5.21868088257420      1.19584335765561      3.20179311574548
  H   6.42334721360747      0.13734383849492      2.92502685454360
