17
Coordinates from ORCA-job frag_353
  C   1.06591893571625      0.01626127966336     -0.04732428021668
  C   2.57614214019387     -0.18334959442472     -0.08657463615105
  C   2.95189322651070     -1.64582902562531      0.12729450939470
  C   3.15370760228908      0.35287590471636     -1.39322122740300
  C   4.66548788305112      0.47157505698701     -1.40224137649649
  O   5.36576584227705      0.34299894303362     -0.44003289353969
  O   5.20579254698131      0.77040139097220     -2.59839058531074
  H   0.64492602338640     -0.34466736153473      0.90359391545463
  H   0.56987513303469     -0.54150666042577     -0.85952782944665
  H   0.79093649487104      1.07779819575245     -0.15335757236451
  H   3.03535294794662      0.40581626348666      0.72577515006000
  H   2.52682796123636     -2.28162625753241     -0.66827489526775
  H   2.56141899154986     -2.01422595599113      1.08834571822020
  H   4.04332968193223     -1.77762276548767      0.13562903469884
  H   2.75456811663363      1.36238422617399     -1.60444401154452
  H   2.83525669874301     -0.28121043081108     -2.24230732126029
  H   4.51549977364676      0.83992679104715     -3.26834169882699
