11
Coordinates from ORCA-job frag_57
  C   1.03811354531388     -0.13466049919731     -0.10469725682465
  C   0.46015798040318     -0.89576993017253     -1.29704570937051
  O   -0.65561415354110     -1.37270907477347     -1.26271189295710
  N   1.29168607169941     -0.94320829267950     -2.36082290805761
  N   2.47541193025607      0.04418974590307     -0.17725189503348
  H   0.65927725126047     -0.64700009090597      0.79912235637040
  H   0.54805025596574      0.85269246523140     -0.12057782684585
  H   2.20058589000129     -0.50193443279618     -2.27534429413382
  H   0.98887656750745     -1.39843048154255     -3.21009594156570
  H   2.96012752392340     -0.77580534813636      0.18118722611975
  H   2.78062713721021      0.83433593906941      0.38383814229858
