20
Coordinates from ORCA-job frag_122
  C   1.00094941558406      0.11859541394231      0.15522906574715
  C   0.52268017341916      1.36277981032254     -0.58415947184906
  N   -0.91100106290952      1.41259787660089     -0.72826449757496
  C   -1.70321286641346      1.85443888945973      0.28108979873819
  O   -1.29193045317310      2.24559174413414      1.34937248833140
  N   2.44329037830123      0.14646779822895      0.30810225144725
  C   3.05614005768630     -1.02973070368199      0.89684858089145
  C   4.46446016236079     -1.24678641029323      0.33951015263543
  O   5.25932026610505     -1.99116377191105      0.83914748227042
  O   4.68358316750046     -0.55414246145269     -0.77192569661918
  H   0.72972136662462     -0.78042620422618     -0.42384705192438
  H   0.46507431867712      0.06033068349114      1.12194250412343
  H   0.99477646038392      1.41601326234400     -1.57651268811469
  H   0.83243421613613      2.25769600928453     -0.01937693549305
  H   -1.34465558372856      1.06316715918152     -1.57247549331207
  H   -2.78822826700107      1.82710398678961      0.01702140362808
  H   2.71603147813367      0.97665703183140      0.83288383734487
  H   2.47435750897163     -1.92282973012223      0.61392463334346
  H   3.11165392621779     -1.03154686225715      1.99917023100316
  H   3.85405533712374     -0.03281352166624     -0.89378059461692
