11
Coordinates from ORCA-job frag_49
  C   1.04772111664359     -0.05503687103490     -0.07287477326839
  C   0.51686010733912     -0.75067643072495     -1.31502557414421
  S   1.01268808961783     -2.50189381533195     -1.45545772279243
  N   2.49573525828558     -0.05014410151875     -0.05703396867812
  H   0.57955424504501     -0.52576673780239      0.81841866338844
  H   0.69220997349947      0.98999695359991     -0.09864985978699
  H   0.84233536442275     -0.22041808626257     -2.22275292409010
  H   -0.58388322917984     -0.76372801240440     -1.30758225469355
  H   2.27535670351987     -2.26367853057533     -1.87069275988189
  H   2.82986023420008     -0.99470480674746      0.13193398313707
  H   2.84166213660654      0.52885043880281      0.70451719081019
