17
Coordinates from ORCA-job frag_146
  C   1.31590954639134      2.01082907335408     -0.08302549083893
  C   2.81300201168254      1.87641571950555      0.12834984333540
  S   3.14891587463770      0.85623226908424      1.59632771264149
  C   4.95604242905776      0.78941677333736      1.50795304134991
  C   5.59303326336230      0.05194569593260      2.70811807935486
  C   6.27885700834589      1.39193576650542      3.01720475081598
  O   7.02841058503620      1.80607220297216      3.85433355377932
  N   5.69294233819797      1.96829725244562      1.91995502994940
  H   1.10831062165542      2.62825163420561     -0.97017808574877
  H   0.83263195057225      2.48798408309532      0.78309542909063
  H   0.84595108292740      1.02726699869271     -0.23405680199866
  H   3.27208988702294      2.86952855059088      0.26635718139624
  H   3.29108896191379      1.40386967167981     -0.74619208270361
  H   5.24971176707945      0.41348392238929      0.51359061985143
  H   6.27731140400678     -0.76778050822361      2.45074477500418
  H   4.88689190677271     -0.27603252436844      3.48457870920875
  H   5.70409936133753      2.92028341880139      1.57064373551236
