19
Coordinates from ORCA-job frag_248
  C   0.94834724470691      0.10077655325599      0.02012753280375
  C   0.30004831968137      0.51378278939507     -1.28579399373765
  S   -1.50313595758345      0.48309662736623     -1.11744518156525
  C   -1.95356694270988      1.00635504109048     -2.79395818008381
  C   -3.46500622592927      1.09155326035092     -2.93874696061174
  N   -3.80827036587952      1.47231797072225     -4.29386286273835
  C   2.45001404765835      0.10501451177978     -0.03406278981197
  O   3.09657719042601      0.40471485186782     -1.00169612810207
  H   0.62664924982314     -0.91072513301572      0.33064489879278
  H   0.64128808884212      0.76141529590452      0.85247712088765
  H   0.61468287248242     -0.16578073459376     -2.09375500273004
  H   0.63477809675757      1.52507698084860     -1.56763318398500
  H   -1.55573440459855      0.29475547267257     -3.53518926181436
  H   -1.49614985009589      1.99149875080598     -2.99547175574422
  H   -3.86203142917058      1.76516132852358     -2.14918380649952
  H   -3.89327309180968      0.09553846208199     -2.73640358010808
  H   -3.56366343322407      2.44621767009490     -4.46455853436295
  H   -4.81089327737291      1.39606455930594     -4.44663694171464
  H   2.95253986799591     -0.20063425845716      0.92144861112547
