24
Coordinates from ORCA-job frag_332
  C   3.11787108980862      1.18185750215988     -0.62781147035589
  C   2.51067768228462     -0.00274612209548      0.11243722757549
  C   2.98213562619554     -1.32555711912503     -0.48037008765335
  C   2.88247535310347      0.03523117200946      1.60696146426035
  N   2.57077057617005      1.26317510337863      2.27439510066258
  C   3.51169425822197      2.18642110115760      2.57900963001431
  O   4.70628384611965      2.05386700533786      2.38581708467280
  C   2.94628875341561      3.43843766254182      3.24487034133242
  N   1.51533515091784      3.58010261118111      3.07129568361581
  S   0.66001107855974      0.08696383560816      0.06063731245145
  H   4.21335998097360      1.18378621181742     -0.50591012150249
  H   2.73184705596200      2.13209008195266     -0.23381050985757
  H   2.88568928221720      1.13424299186523     -1.70349399785267
  H   4.08241773323362     -1.39317919050556     -0.43376749450776
  H   2.67964539261557     -1.41526233837312     -1.53446805015681
  H   2.55625991142325     -2.18038806647165      0.06568832190940
  H   3.97319652363741     -0.10108345816564      1.68851638906838
  H   2.39824706136095     -0.81229239989961      2.12216466510390
  H   1.60840363506984      1.54984864505653      2.44555846544941
  H   3.56226694237989      4.28202335444991      2.88203361790040
  H   3.17575547736894      3.33557804228178      4.31822576391585
  H   1.29288442522022      4.03731035589425      2.19005043626437
  H   1.09636657485844      4.13522807913218      3.81118681561685
  H   0.55611658888195      0.32014493881160     -1.26521658792727
