17
Coordinates from ORCA-job frag_333
  C   1.05423834798900      0.03170803595908      0.14490472337890
  C   2.53913364949464      0.09677337762136     -0.17864165224536
  C   3.16032707340417     -1.28825290239264     -0.29197028831385
  S   2.86987031224119      0.97627539845336     -1.74871611357599
  C   2.32541492111545      2.66319108364050     -1.30630264251665
  N   3.05770105950024      3.59839440297399     -2.11327491060232
  H   0.88885504194457     -0.50382220770975      1.09504427977239
  H   0.50977417009171     -0.49876518424607     -0.65185191325509
  H   0.61158672892266      1.03354628241992      0.24765120952161
  H   3.06315037158180      0.65846976697640      0.61592718401421
  H   2.68539405143063     -1.86525490415973     -1.10160890931616
  H   3.01872892009482     -1.84713127034664      0.64684167945061
  H   4.23866978019035     -1.22881748471379     -0.50113531739490
  H   2.45225719617298      2.76186006614470     -0.20551098545608
  H   1.25002593047680      2.77581839429995     -1.52169590932396
  H   4.03387076011906      3.64183920156180     -1.83037377182344
  H   2.66070168522991      4.53226794351756     -2.04828666231391
