14
Coordinates from ORCA-job frag_128
  C   0.99465457242574      0.12881417795925      0.07682744039617
  C   2.50445647771579     -0.04135319610844      0.03375045783252
  N   2.91756838311656     -0.95547018929088     -1.00624063593805
  C   2.57232506445179     -2.34069118512381     -0.78397470628313
  S   3.36416776025322      1.55403028143252     -0.19285656373815
  H   0.49440899945036     -0.82374416714968      0.31259401555364
  H   0.62838692919348      0.47283369420000     -0.90270043682594
  H   0.70942685676218      0.86191426693579      0.84343600440284
  H   2.85471390151627     -0.35533803630753      1.04474241390171
  H   3.91949427833397     -0.85526501357545     -1.14700497527494
  H   1.48505856306860     -2.49423970117225     -0.86851049740943
  H   2.88860437343689     -2.73841577531277      0.20591092026792
  H   3.04134550050329     -2.96224656153688     -1.56062825206466
  H   2.88428833977186      1.77097140505014     -1.43814518482048
