16
Coordinates from ORCA-job frag_105
  C   1.03921975870793     -0.18304684865664      0.23115357086579
  C   0.54857848718339      1.14030327840718      0.74715284748509
  O   1.26722623052433      2.06937662858128      1.00147744080566
  N   2.44489652148685     -0.18409450564664      0.00777138736989
  C   3.00413438033779     -0.79965714630603     -1.05983669252145
  O   2.39034191907486     -1.48489433833342     -1.85586761567146
  C   4.51088982942590     -0.58786736734256     -1.16621651219377
  N   4.97712553041580      0.53940014808183     -0.38710165736292
  H   0.51823266386310     -0.43935188174361     -0.70962571431588
  H   0.70961601986198     -0.95528348507677      0.95840205220049
  H   -0.55903646360411      1.19582890713061      0.90886313875745
  H   3.05092721402920      0.44328293436827      0.53556362281308
  H   4.74155681564253     -0.56057853222687     -2.24723266776087
  H   4.97130991199130     -1.51265263171945     -0.78133540659667
  H   4.87498059463791      1.41228319648083     -0.89980642180851
  H   5.95660058642118      0.44995164400198     -0.13546137206590
