14
Coordinates from ORCA-job frag_82
  C   1.16729584184544     -0.07155285121402     -0.12492078198167
  N   2.60375986200054      0.02868115126190     -0.11301473222474
  C   3.29363898763730     -0.15481526574872      1.13617891862949
  C   3.30488076171356     -1.59730825560846      1.59323907621330
  O   3.28509680244156     -1.93846092716860      2.74250069350104
  C   3.32051327408680      0.33655764488983     -1.23276822580366
  O   4.52152386424993      0.46042123142281     -1.27674899219820
  H   0.82609281603663     -1.06165536956295      0.22216797932807
  H   0.79654725489966      0.07433919312722     -1.14952785673767
  H   0.70526078536574      0.69336688864011      0.52245261139265
  H   2.87500843096630      0.47516369301954      1.93905424347632
  H   4.34418253164653      0.14417222444733      0.96902428596520
  H   3.35443661119371     -2.34104521666930      0.75221910786940
  H   2.66206217591627      0.46493585916331     -2.12555632742952
