23
Coordinates from ORCA-job frag_273
  C   0.89658389328563     -0.25354749469303     -0.03389994506990
  C   2.39408073907136     -0.05837437852057      0.13255434083984
  C   2.87185891449568      1.31312665832413     -0.31608720949229
  N   4.29550863973100      1.47276298763432     -0.11034299789746
  C   4.82352222556062      2.77830778589477     -0.42854811295637
  C   4.59843253780912      3.76304022885875      0.71917467635079
  N   5.10845117966523      5.08359960739700      0.44097007385073
  C   4.32625025309513      6.07556326654875     -0.05255027969585
  O   3.14049303097373      5.98358359744768     -0.27284201491992
  H   0.58075751567241     -1.25488026232736      0.29505070192698
  H   0.58968599784845     -0.13774854147114     -1.08595575761842
  H   0.32934893560927      0.48336664086394      0.55672532231743
  H   2.93568366189827     -0.83278035356634     -0.44080194745771
  H   2.69079751977060     -0.19874610430961      1.18517708916916
  H   2.34058116889662      2.08396827226952      0.26794230577127
  H   2.56923723066331      1.48410091120487     -1.37516770846163
  H   4.79726596540843      0.75413781307182     -0.62382833601681
  H   4.38905584673780      3.21837729306576     -1.35288491809961
  H   5.90839565893421      2.68639539720799     -0.60362213710619
  H   5.06187299879896      3.36374100051588      1.63445573465943
  H   3.52166219301796      3.87312496909523      0.91155744841090
  H   6.09778947247350      5.26592911763746      0.54872374849044
  H   4.90368442058266      7.01665158785016     -0.23050007699479
