17
Coordinates from ORCA-job frag_117
  C   0.85452602435110     -0.57659609610666     -0.05965625682338
  C   2.31798281601745     -0.17663900385523      0.00129773596909
  N   3.20908083351229     -1.32604804236508     -0.10725030336865
  C   3.12774976776823     -2.29194067759362      0.97522227083187
  C   2.24111069680354     -3.48116388913910      0.59640639099482
  O   1.82055061637211     -4.26867082115433      1.39561494277874
  O   2.02629377852641     -3.55342632072104     -0.71174725282757
  S   2.76565470004390      1.05535238774292     -1.26355397836156
  H   0.59387280986042     -1.26902234011313      0.75699784249322
  H   0.62162309810323     -1.07570599061817     -1.01237216812068
  H   0.21768826236986      0.31272757900575      0.03541083663867
  H   2.49614224182589      0.37617974439737      0.94765564612196
  H   4.15900616553700     -0.99799849432652     -0.25747514724294
  H   2.76277961196482     -1.87620807419891      1.93091376681690
  H   4.12775325514152     -2.70559348080462      1.17904159175136
  H   2.47024159857472     -2.74603061353074     -1.06672748772797
  H   2.41454372322745      0.29088413338114     -2.32227842992389
