18
Coordinates from ORCA-job frag_341
  C   1.02136524780081      0.01397771187530     -0.15818356753591
  C   2.54512784583823      0.03368818907800     -0.07260639603011
  C   3.05526173053027      1.41681230208548      0.31302310643407
  C   3.11730063321505     -1.03094805755614      0.89496832041636
  C   2.52332147722374     -2.40230676732531      0.61719838743270
  O   3.16186749467471     -3.30937220688475      0.14999389254452
  N   4.56190553089929     -1.03483471939166      0.85384203550964
  H   0.66558652557455      0.84581651669376     -0.78481328019853
  H   0.56514283362161      0.13639035734566      0.83878076416693
  H   0.62631053736303     -0.91414795954050     -0.59755012827832
  H   2.94926312977853     -0.21661097687767     -1.07242006990249
  H   2.62217529666486      1.73291854567990      1.27703315153968
  H   2.77033276986758      2.16478479212841     -0.44297321118706
  H   4.14851897363426      1.40866557284657      0.41769027228399
  H   2.78276118128873     -0.74677528737920      1.91251388483460
  H   1.44185937087253     -2.54029050552802      0.87518724035849
  H   4.85631653983917     -1.53776241806320      0.01556971444611
  H   4.92758288131300     -1.58450508918664      1.62884588316530
