17
Coordinates from ORCA-job frag_20
  C   1.41831435102799     -0.16636741849524     -0.02007824660600
  C   0.90027039034001      1.12438089011264      0.09050234699179
  C   -0.47773756255313      1.32665783298920      0.09831345149647
  C   -1.36049455839821      0.24300243028165      0.00248605167820
  C   -0.83011860286984     -1.04605518540792     -0.11354710094387
  C   0.54916419288719     -1.25085661966266     -0.12311478122474
  C   -2.84802931249719      0.48800808529568     -0.02922593613745
  C   -3.26637562155446      1.02741886693390     -1.37850433076354
  O   -3.80801126712617      2.08467172964000     -1.55075730875361
  H   2.49944718227716     -0.32659493689750     -0.02478600138264
  H   1.57448720374055      1.98055369162393      0.17143911488809
  H   -0.87931991370163      2.34064651069917      0.18186343050255
  H   -1.50561763954971     -1.90303327795667     -0.18930178032609
  H   0.94671582320748     -2.26519456373309     -0.20918569624197
  H   -3.16243675576360      1.21264566923289      0.73629140101223
  H   -3.38796963412463     -0.45877559246703      0.14011516632255
  H   -3.00788827534180      0.35899188781105     -2.24230978051197
