21
Coordinates from ORCA-job frag_149
  C   1.58545509910351     -0.87689373197537     -0.76622563601383
  C   2.95915760970575     -0.30190895553116     -0.48289137825170
  S   2.89639087356879      1.52190347773928     -0.43270558391187
  C   4.65457788083427      1.86336394124311     -0.69140512759506
  C   5.06021070863131      1.83406615458524     -2.17861058519086
  C   4.58013333554347      3.08089796133661     -2.87969841559547
  O   5.30879031429375      3.80901177151116     -3.50238582505373
  N   6.47490986703486      1.69918009295513     -2.37298215209775
  C   7.09770656861877      0.51868606248475     -2.15580462915588
  O   6.54718591226846     -0.47182436875885     -1.72262033436014
  H   1.62462344029454     -1.97708145814710     -0.75824318936392
  H   1.21402565987677     -0.55232550335916     -1.75007708317099
  H   0.85168534184856     -0.56178535292026     -0.00774063484735
  H   3.69005484032583     -0.60736003189596     -1.24884112364171
  H   3.34439661748563     -0.65805379813788      0.48616232187589
  H   5.24665924754587      1.10551841520744     -0.15816511114265
  H   4.88044763769775      2.84211243570333     -0.23975382504415
  H   4.53883546563052      0.97358376094611     -2.64056530773357
  H   3.49086336165779      3.29006800113619     -2.75591539826741
  H   6.94699552349253      2.46994868617056     -2.83838185830706
  H   8.18329469454095      0.54829243970681     -2.41094912313070
