21
Coordinates from ORCA-job frag_327
  C   1.03773617299249      0.04198179246633      0.00396727523439
  C   2.55950107109228      0.05984245880905     -0.08826169023349
  C   3.06868095110206     -1.01898294110822     -1.04300489064755
  C   3.06498368736546      1.47081792778665     -0.52616628434656
  C   2.65766022066172      1.76079669163581     -1.96034388513381
  O   1.84889041678809      2.60150135861126     -2.25213160686600
  N   2.60564190007836      2.54183489336275      0.31044063877055
  C   3.43306949403377      3.16875935330155      1.18998044867292
  O   4.56064592578660      2.81880750760589      1.44547718938952
  S   3.29682285448208     -0.21896984011086      1.58663508482134
  H   0.57645261608970      0.25015681244913     -0.97629775132100
  H   0.68168605127506      0.78875999807038      0.72704235255239
  H   0.68233827892029     -0.94588472306696      0.33369096615249
  H   2.58415745351255     -0.95408877347352     -2.03083822219986
  H   2.84323763555006     -2.01659957865537     -0.63864800534133
  H   4.15908089740703     -0.95357215296435     -1.17615689095797
  H   4.17008982222286      1.45475718128742     -0.47955586071569
  H   3.15086367673312      1.13865743586304     -2.74432319413774
  H   1.75598402950437      3.01181385428097      0.01575350181597
  H   2.94751168034429      4.05498060675360      1.66236165931768
  H   2.63696516405774     -1.38056986290456      1.79137916517375
