17
Coordinates from ORCA-job frag_205
  C   -0.18874457615412      1.30105964579081     -0.38412770130272
  C   -1.49432546987972      0.76598281046268      0.18113819252246
  N   -1.36254018267447     -0.69670411381626      0.19552708799841
  C   -0.02567055943484     -1.20858851959876     -0.08185885487769
  S   1.09088814371160      0.17517530457885      0.23964941478474
  C   -2.42579541236658     -1.50432517879333      0.34198996877058
  O   -3.55548891180315     -1.11375062952024      0.60548710233396
  C   -1.80351832995252      1.37234542145536      1.57310198146843
  O   -1.14912494458848      2.26601980917014      2.03274725687578
  O   -2.86668296572266      0.87607871826235      2.17590815803292
  H   0.00612951428610      2.31008353456970      0.00021774006407
  H   -0.19632182060864      1.30651364000130     -1.48496733837519
  H   -2.34771897349942      1.02686977894874     -0.47171116431567
  H   0.05443441199765     -1.54478880999730     -1.13060129196245
  H   0.22846087996942     -2.04558019762941      0.58478924857529
  H   -2.19416120545461     -2.58258197306759      0.20300729706289
  H   -3.30781959782555      0.18849075918297      1.61470290234418
