20
Coordinates from ORCA-job frag_198
  C   3.16882941767150      0.54337999867597     -1.23429554104085
  C   2.62221576602132      0.11345151616905      0.11614494863947
  C   3.05942003578876      1.02325334788456      1.25773420622276
  C   2.37810782710551      0.69128879624012      2.57190650104433
  O   1.41163145402546     -0.01180986298496      2.68157232620651
  N   4.48808630704381      1.08122918303368      1.44704250099380
  C   5.20611142261177      2.22392367652877      1.22211197439952
  O   4.67842984274990      3.27354015420349      0.91550245273197
  C   6.70189235704335      2.09490637006727      1.38465131950431
  H   2.82579515719046     -0.12887549846734     -2.03446330355841
  H   4.27032059078460      0.53802293907990     -1.24108584449405
  H   2.84689402953824      1.56511196734042     -1.48808376744962
  H   2.92885402363688     -0.92221617929334      0.34821828712240
  H   1.52138183201225      0.09518319006045      0.11152724209627
  H   2.77183382517648      2.06985217088536      1.03302693103942
  H   2.86088933928230      1.17497444711279      3.46209968410931
  H   4.98183387067114      0.22128454768856      1.64870664755459
  H   7.04096385492477      1.08714981040749      1.66209558061673
  H   7.03261051862354      2.81173460269582      2.14960078709203
  H   7.17929852809789      2.39091482267193      0.43958706716950
