17
Coordinates from ORCA-job frag_77
  C   0.95452621534861      1.04652803493714      1.04256518036644
  C   2.45141460422822      1.27198350267181      1.09047616200984
  O   2.95645965034483      2.37307555246691      0.99028431706883
  N   3.19566645414179      0.14144923448430      1.25521156370768
  C   4.63941069437743      0.17796189086314      1.33235342941550
  C   5.15448958114543      0.39235414133358      2.74794700550079
  N   4.68173635821374     -0.66305768144597      3.62638771298339
  H   0.46165441008664      2.00436248054196      0.84204056838933
  H   0.58952540174167      0.64881973653958      2.00264354370440
  H   0.68621700726430      0.32433971430759      0.25593382105299
  H   2.72859197534647     -0.75020934876260      1.34824751298169
  H   4.98991671486060      0.99393072059643      0.68244911872619
  H   5.02834547297745     -0.77586565074877      0.94334391812866
  H   4.87082984619906      1.41737545081728      3.06473760261116
  H   6.25656997218823      0.36310274617539      2.71652030768841
  H   3.68352583124198     -0.54007415316946      3.78989296431208
  H   5.12051981029353     -0.58777637160830      4.54116527135259
