21
Coordinates from ORCA-job frag_144
  C   1.11348631808874      0.16020558653550     -0.06567111665568
  C   2.58020054897123      0.53353212880168      0.05794832890404
  S   3.08991091622077      0.48095426834892      1.80743941312720
  C   4.89588817927976      0.25549148295976      1.63749597961688
  C   5.53169137676558      1.40239782364300      0.84290238506209
  N   6.94903947339172      1.19908523146096      0.63519233216902
  C   7.40308990072312      0.42199440204866     -0.37954539082961
  O   6.69269755987693     -0.14525566990046     -1.17793177437553
  N   5.41646950212085      0.08306242657708      2.96921677668993
  H   0.79434529495377      0.20421609778919     -1.11845951522284
  H   0.47425818813129      0.84946323020695      0.50742121454982
  H   0.93178205957125     -0.85804539947059      0.30920313521620
  H   2.75447441988443      1.53840976469683     -0.35921729909054
  H   3.21132324264708     -0.17360901110653     -0.50496484506469
  H   5.06512593472815     -0.67948028284232      1.07590310861715
  H   5.37120492328600      2.34992961182864      1.38204233091055
  H   5.06172719802894      1.48999543667337     -0.14711723719914
  H   7.61976674187459      1.61655872745772      1.26604519774090
  H   8.51924697936644      0.36176458370762     -0.40720783075492
  H   5.40079726818914      0.96131155586393      3.48534352254849
  H   6.37567397390019     -0.25208199527991      2.93786128404066
