13
Coordinates from ORCA-job frag_14
  C   0.95731383612849     -0.05505391266195     -0.08011794021049
  C   2.45529164088365     -0.06423764380487      0.00166487606647
  C   3.10134827596324     -0.20905649776746      1.17219386817423
  C   3.22368046699188      0.08999985205974     -1.23735587874190
  C   2.71119464267423      0.24766528963838     -2.46559433230660
  H   0.49943777960924     -0.17609262468005      0.91059733797577
  H   0.59196117267241     -0.86730084706517     -0.72992781670072
  H   0.59155667174751      0.88960316818217     -0.51490918548823
  H   2.56030851122097     -0.32812631096220      2.11455571139016
  H   4.19436263984536     -0.21361579454024      1.22098806427046
  H   4.31400983553346      0.07098191435183     -1.12089759812454
  H   1.63358515461161      0.27616938493491     -2.64988944911258
  H   3.36024937211792      0.35636402231491     -3.33760765719203
