20
Coordinates from ORCA-job frag_195
  C   2.84596809954802      1.38914663173339     -0.54852609384045
  C   2.38409649262869      0.02092363092785     -0.07653365417999
  C   2.99293605497557     -0.38319506289250      1.26157023678612
  C   2.47368243827096     -1.71427881935612      1.77224347788874
  O   1.51097707896929     -2.28309049003037      1.33742217065742
  N   4.44322890159120     -0.37995460039062      1.28892219300547
  C   5.16278145400066     -1.22866340287280      0.37338443579840
  C   5.08932230094403      0.49084594047295      2.11712568379760
  O   4.55132079833457      1.26339203813038      2.87539339404303
  H   2.36093555583239      1.66707135846869     -1.49560598353451
  H   3.93514609133268      1.41306311875307     -0.71336340445857
  H   2.61419369831559      2.16806540743781      0.19446242747156
  H   2.60780949960494     -0.75118674788327     -0.83215363697503
  H   1.29043612205717     -0.00611875397579      0.04540645064498
  H   2.70490560457649      0.35603127915872      2.03543543993105
  H   3.06960758157987     -2.13168190662314      2.62768865253264
  H   4.83913244704928     -2.27927258923102      0.46219172472778
  H   6.23773236364430     -1.18684299531602      0.60242064003295
  H   5.02442827250695     -0.91728698583406     -0.67614456067088
  H   6.19965914423727      0.40923294932285      2.02326040634169
