15
Coordinates from ORCA-job frag_19
  C   1.33277235124662      0.22651745439469      0.94575040332568
  C   2.38829335453365      0.14589001459321      0.12880709362948
  C   3.04421927987969      1.29908670856960     -0.51529585351464
  C   2.34888103378731      2.32771996733176     -1.02267312631057
  C   4.54788655026676      1.27306754592244     -0.57900195548923
  C   5.15360071488781      0.16750348389030     -1.40878978257190
  O   4.54907183589510     -0.72625908108931     -1.93484167205310
  H   0.88095984867594     -0.67058705527136      1.37657980124034
  H   0.89136470731194      1.19106272241274      1.21609490929166
  H   2.82841579865266     -0.83371725774109     -0.08853999200882
  H   1.25598399767686      2.32898780705170     -1.01507399250793
  H   2.84976034620755      3.18895704661875     -1.47397702370725
  H   4.98767999334384      1.16893225964084      0.43290783936713
  H   4.94990214530414      2.22497241296094     -0.96744940119556
  H   6.27120804233008      0.23486597071479     -1.49979724749528
