21
Coordinates from ORCA-job frag_272
  C   1.05911480865836     -0.01715940600654      0.12173555400085
  C   2.56940416128707     -0.13555902821226      0.00327309126997
  C   3.08059366849895      0.08918075057736     -1.40980418720264
  N   4.52139231932911      0.01859513084068     -1.47254114894349
  C   5.07500362548020      0.17666636270694     -2.79725945774703
  C   6.59308709185606      0.24382692523905     -2.74349097639872
  N   7.13616783138028     -0.90570413594190     -2.03652150267856
  H   0.71942094114355     -0.19163675167753      1.15371561126484
  H   0.54558923320962     -0.74736953663249     -0.52412262992890
  H   0.71190844653202      0.98584214103991     -0.17563411889139
  H   2.89073196138276     -1.13682508950446      0.34464742637609
  H   3.06940525926041      0.58646168950040      0.66997798455501
  H   2.76627708919043      1.09267942260168     -1.75217595411641
  H   2.58051652448341     -0.63171910105543     -2.09903364812030
  H   4.82533259088417     -0.88595771646673     -1.11338601438137
  H   4.69001936875121      1.11574591712097     -3.23183456002408
  H   4.77132177941360     -0.64156027813847     -3.48891706135562
  H   6.88834346087586      1.21594309767322     -2.29762827654546
  H   6.97763187773405      0.23856169270862     -3.77644435652450
  H   7.09272462568191     -0.73776315956600     -1.03278164795173
  H   8.12041333496695     -1.03314892680703     -2.25587412665655
