15
Coordinates from ORCA-job frag_267
  C   0.89930865451484      0.02942188864160     -0.03678718362061
  C   2.41841589079914      0.05215136904773     -0.01316485119907
  C   3.00699519540041      0.87130703338425     -1.15591462273583
  N   4.45018353020023      0.90355099594639     -1.15913881408678
  C   5.19933500530752      0.18466403834986     -2.03189467690812
  O   4.76495131005125     -0.51110431930958     -2.92088282556326
  H   0.49197864615737     -0.56801157060481      0.79208295016551
  H   0.52256277042214     -0.40507056462724     -0.97649084894632
  H   0.47864587780099      1.04447424649209      0.04802152658323
  H   2.81794674806730     -0.97363889857368     -0.07798711387364
  H   2.77451303343228      0.46077969738074      0.94961908632420
  H   2.61597065231827      1.90338324273415     -1.12284723355490
  H   2.70513591233184      0.43987228157346     -2.12207653370048
  H   4.93197554036736      1.41000588416682     -0.42729696735961
  H   6.29468123282901      0.31261467539822     -1.84544189152431
