18
Coordinates from ORCA-job frag_329
  C   1.03759953126386     -0.03792923074029      0.01676966781763
  C   2.55721173296565      0.05076331149361     -0.08367294412046
  C   3.08123664229412     -0.70492889015674     -1.30137069012604
  C   3.03149833976766      1.51007734609548     -0.08197688966609
  C   2.56474977637537      2.37296584015353     -1.24027464796857
  O   1.87912714689501      2.01433019955163     -2.15426104697716
  O   2.99431063287275      3.64570038268494     -1.18020938965835
  S   3.32658714878092     -0.63493470716606      1.45891228451800
  H   0.57461053821563      0.40219483159680     -0.87876007754100
  H   0.66777380334602      0.48888096420947      0.90909566315092
  H   0.71777207236398     -1.08852758525492      0.08937844158977
  H   2.65730179429297     -0.27555611619519     -2.22108343073241
  H   2.79058653009874     -1.76511007004606     -1.24893503540374
  H   4.17938726417063     -0.65826793083866     -1.35421117408638
  H   4.13689521293209      1.53920885239530     -0.07159757441410
  H   2.70354660686111      2.00095717346809      0.85279259317942
  H   3.52575523838620      3.78780303254481     -0.38763960313614
  H   2.80304998811728     -1.87322740379575      1.33464385357471
