18
Coordinates from ORCA-job frag_52
  C   0.93057290094111      0.15634327104878      0.00746383678382
  C   2.43336284229230      0.03325068039795     -0.07116743805542
  O   2.98403605773781     -0.90388327989753     -0.61751435965863
  N   3.14075907538418      1.04913096002240      0.49925994945021
  C   4.56976196550087      0.99422540823604      0.60237842901405
  C   5.29051782966436      1.21008655225404     -0.72916681985171
  S   5.03878622746700      2.87244585879482     -1.42234584255204
  C   5.01936461755496      2.00469933588888      1.63569786780762
  O   4.25953430480832      2.63227406263272      2.32241535750782
  H   0.52341613951787      0.12600308660249     -1.01287322194081
  H   0.58326314304208      1.06926954372162      0.51018266695980
  H   0.53612292828621     -0.72277044384806      0.53718832727567
  H   2.68815092750375      1.74156654621411      1.08898533337936
  H   4.87975145339833     -0.00680367538731      0.97099166034846
  H   4.97086735393747      0.42968874279647     -1.43366120502582
  H   6.37848079866976      1.11061550695401     -0.58781873415992
  H   3.69130450120316      2.78745021659522     -1.47394948955644
  H   6.12784693309041      2.11780762697335      1.72823368227396
