20
Coordinates from ORCA-job frag_310
  C   1.03234728491277      0.14308648119909      0.00356288416892
  C   2.55702350384886      0.10230761946753     -0.08459031263305
  C   3.07484838690304     -1.29044267046950      0.26607328394954
  C   3.02368406967687      0.54829525554102     -1.49028813375251
  C   2.65187541914857     -0.44799114582008     -2.55849089745676
  O   1.61782861576683     -0.42264075199621     -3.17244343601038
  S   3.11444991636839      1.34537500508221      1.15880108209586
  C   4.90410883136438      1.12704733304065      1.19328923131091
  H   0.58583324922415     -0.50796523786906     -0.76275790445971
  H   0.65408585229992      1.16318780502514     -0.16457323029888
  H   0.69216963949138     -0.19344501343616      0.99439452465122
  H   2.60645902797383     -2.05221769243487     -0.37907509819499
  H   2.83126159886992     -1.53644774055425      1.31011132807092
  H   4.16504209622148     -1.37143397027877      0.13614807762582
  H   4.11908294306053      0.67225759184605     -1.49250666335917
  H   2.55404603441112      1.51330164430444     -1.73134873916587
  H   3.40214661962791     -1.26218844617666     -2.74596521412558
  H   5.29102707587098      1.91774176267538      1.85188763443412
  H   5.36229265290990      1.26004201635552      0.20130603280969
  H   5.20158718204912      0.15403015449853      1.61106555033992
