6
Coordinates from ORCA-job frag_22
  C   0.97735109488601      0.09167182833889     -0.01847348072265
  O   0.33517914844431      0.93254795866294      0.56122525938283
  N   2.33016881604659      0.03200394765462     -0.06150989763978
  H   0.50319699119458     -0.74358666000652     -0.59362715099351
  H   2.86992068848880      0.73812450088010      0.42423787398906
  H   2.81238326093970     -0.70186157553004     -0.56015260401595
