22
Coordinates from ORCA-job frag_291
  C   2.46636153110380     -0.09302123992594     -1.49924041403031
  C   2.67330002438678     -0.18435413251593      0.00511657894243
  N   3.31190115432915     -1.41350393872004      0.40846768771601
  C   4.63391023724725     -1.48391964851451      0.69497106021079
  O   5.38400526729314     -0.52788815630319      0.75846279764552
  C   5.13113489698065     -2.91475031498030      0.93000237546176
  N   5.18752177047181     -3.69842466531938     -0.28493474047378
  C   4.08664304206287     -4.29793657273156     -0.79977108232510
  O   2.98935901444047     -4.20607094834250     -0.26651764727920
  C   4.28783290338830     -5.09420012235631     -2.06450269383891
  H   1.96329189728929      0.84779381383939     -1.77194355547077
  H   1.84680071202783     -0.92674556248230     -1.86715058701398
  H   3.43267286488289     -0.12730768955096     -2.02472198872032
  H   1.70860023272065     -0.09372418737450      0.53139938224706
  H   3.31674268646668      0.63603949096434      0.35478757931824
  H   2.81869637923980     -2.30053478269269      0.29742699893646
  H   4.46463357601044     -3.43080884508768      1.63900188112837
  H   6.13619590928326     -2.84305622137825      1.36263690682958
  H   6.05003250901467     -3.70810087439209     -0.81176564864378
  H   5.32803802404117     -5.12332848137857     -2.41674517032214
  H   3.64795531593095     -4.66827599844613     -2.85061783297144
  H   3.93717005138809     -6.12048092231088     -1.88516188734650
