16
Coordinates from ORCA-job frag_208
  C   -0.24264912524067      1.32606886682754     -0.46588468791384
  C   -1.49755734416236      0.76972649880418      0.18192741409780
  N   -1.35627774721621     -0.67673368833059      0.20761602535745
  C   -0.01368179045590     -1.18906458645675     -0.00723011268263
  S   1.08547474590762      0.24587172722954      0.15065793085914
  C   -2.45404566602202     -1.47360768992388      0.29487362020255
  O   -3.58654686219668     -1.05942545576603      0.39948475552653
  C   -1.70652934174909      1.32377204661944      1.59165624895861
  O   -1.32979789288966      2.40835123852230      1.93511236334221
  H   -0.06014105612669      2.35457007351379     -0.12557826488146
  H   -0.29675960992967      1.29915879949201     -1.56479360703462
  H   -2.41089051602467      1.02738037643533     -0.38690589529170
  H   0.08374698086966     -1.64656518118168     -1.00789779616179
  H   0.26947737209050     -1.93522510194186      0.75176961421581
  H   -2.19935437853289     -2.56021774112425      0.26000368099105
  H   -2.26846776832126      0.64083981728092      2.27558871041488
