17
Coordinates from ORCA-job frag_104
  C   0.83939964728844     -0.31706336852662     -0.24252825593667
  C   0.36246697073878     -1.54626205545496      0.52180474195839
  O   1.07367973904623     -2.51594731197113      0.69878687296441
  N   -0.90329315800269     -1.42709549382251      0.99956073164326
  C   -1.60013094940541     -2.55040241372730      1.52325687477349
  C   -2.75875885773446     -2.96844706464466      0.62949607737241
  O   -3.08828483552345     -2.37357973610835     -0.35427675437248
  O   -3.42427482239619     -4.05774118845575      1.04109140706418
  N   -0.25793183005919      0.49888261280443     -0.71639381912876
  H   1.53721163506325     -0.69116518178008     -1.01443165965971
  H   1.45021464276651      0.26779436270847      0.46556910156494
  H   -1.42008312094044     -0.62528339944922      0.64015943406602
  H   -1.99861733889410     -2.36167459570740      2.53858490663546
  H   -0.87258070231019     -3.37742877499227      1.60832538122434
  H   -3.01140355856658     -4.43118360599249      1.82964526242845
  H   -0.65971673666088      0.11562428564352     -1.56958800255933
  H   0.03680327559036      1.44897292947633     -0.92056230003839
