18
Coordinates from ORCA-job frag_297
  C   1.00899228819435      0.02689637289835     -0.15602272490601
  C   2.52343332398023      0.11717056360024     -0.21338963418797
  S   3.02344451179290      1.77181941135246     -0.77249063517144
  C   4.84002637479608      1.67295987990993     -0.57630997358725
  C   5.48422054098548      0.73709939432691     -1.58742816545177
  C   5.38779187108161      3.08946074660382     -0.68070300243824
  H   0.69457607288731     -0.97276370661472      0.18101360327482
  H   0.56142083011796      0.20466309068356     -1.14613662530820
  H   0.59230463246755      0.76992224457255      0.54090676066448
  H   2.92560489356933     -0.64710164907501     -0.89801216577040
  H   2.96272632020568     -0.06413736472196      0.78224561787254
  H   5.02272761814034      1.29457865241959      0.44579003630938
  H   5.29786233390969      1.09292693013915     -2.61291707540508
  H   5.09307678058191     -0.28773098735288     -1.50883419004138
  H   6.57483497956339      0.68950077242705     -1.42878617356016
  H   5.18220472021701      3.51673241455923     -1.67582234425284
  H   6.47978867001654      3.08773879276430     -0.53548844839912
  H   4.93806323749263      3.75056444150743      0.07448514035863
