19
Coordinates from ORCA-job frag_290
  C   2.45525826759287     -1.45816965312825     -0.20921003731212
  C   2.56586739322082      0.05835709357068     -0.25728706411530
  N   3.21647795293854      0.54008869656758     -1.45313758821424
  C   4.55093971406304      0.76372913231840     -1.50217010735972
  O   5.30069034709785      0.69374838563429     -0.54649828270763
  C   5.06520175404694      1.12166984920865     -2.90152510457117
  N   5.05531514156594     -0.00314423746882     -3.81419319430716
  C   3.93452508965832     -0.39805908344279     -4.45169926556150
  O   2.84347514842240      0.12244184311662     -4.31360769763011
  H   1.93893107095180     -1.78564694085923      0.70645397890012
  H   3.45539323306853     -1.91688402444043     -0.21821187134998
  H   1.89137339538276     -1.84392114879357     -1.07343817033924
  H   3.15394659178698      0.42298474960360      0.59768892891117
  H   1.56786219101525      0.52064567900394     -0.19309163336352
  H   2.71135623199091      0.53688973625644     -2.33931085852272
  H   6.09217382663663      1.48669285881215     -2.78519515621428
  H   4.44446407688513      1.92203169696334     -3.33515447339109
  H   5.89777192256477     -0.55272661750214     -3.92402511673369
  H   4.10557665111049     -1.25952801542047     -5.13778728611782
