13
Coordinates from ORCA-job frag_112
  C   0.97432878593488      0.25689621255265     -0.01977117044908
  C   0.47255164047629      0.00300134337491     -1.42263166083640
  O   -0.55619670580556      0.43746617194617     -1.86122437035863
  N   2.41039790881480      0.18060337861838      0.04599379218244
  C   2.95532827863438      0.10830169395078      1.37463650631560
  S   4.76575303666634      0.01766771373049      1.36441998339427
  H   0.54937090276041     -0.55892470186056      0.59771534571882
  H   0.51284205802693      1.19538258588672      0.35359005682552
  H   1.15090550799696     -0.65635663607647     -2.02714382326161
  H   2.85054807277608      0.94334420175138     -0.46557891209439
  H   2.53443334186645     -0.77254673229806      1.88808306600955
  H   2.73482380261262      0.98704096454474      2.01822857638661
  H   4.83661336923939     -1.11237619612112      0.62738261016729
