21
Coordinates from ORCA-job frag_185
  C   3.12570145631081     -0.64789634808243      1.30241815066516
  C   2.56540201294663      0.06083825711369      0.07847276346713
  C   2.95975569295407      1.54849428391772      0.02473617812000
  C   4.47601100820741      1.71664400912430      0.15713831724862
  O   5.23242350228842      1.52153053227934     -0.75733681754597
  N   2.46554210962499      2.16827111017464     -1.17205393547262
  C   2.71301481426583      3.49371748998306     -1.35834085331648
  O   3.24402697066356      4.15866601304724     -0.48647985456507
  C   2.30449451182869      4.06807953271101     -2.69091349910712
  S   2.95844344266763     -0.82775828277666     -1.48026896901279
  H   2.85171056083198     -0.11021494772355      2.22559717727936
  H   4.22326018525646     -0.72216070961157      1.25800833406057
  H   2.72909027545497     -1.66984981558625      1.36801710840797
  H   1.46347015761145      0.02578763465222      0.10886799544013
  H   2.50716943219405      2.04549746982760      0.90070014247380
  H   4.84973562380168      1.98725185930846      1.17504168647457
  H   2.25389204136308      1.55461219222243     -1.95400466524545
  H   1.64581905940159      3.40605397988374     -3.26976486106652
  H   3.21533773002486      4.26881664856329     -3.27496883474143
  H   1.80497819447810      5.03080485799447     -2.52000933220113
  H   4.23622121782368     -0.38978576702277     -1.57115623136269
