22
Coordinates from ORCA-job frag_270
  C   3.08988830964733     -1.84543887888825     -0.46624551302378
  C   2.54772554124859     -0.94545787876419     -1.56429400810308
  C   3.05804977988181      0.49073149787941     -1.48354297064654
  N   4.49440086916727      0.59715277439061     -1.60271520480020
  C   5.10072174327657      0.63191439623992     -2.81106206607681
  O   4.51114178285410      0.58976900536942     -3.87480431943891
  C   6.62938529908541      0.72682425055368     -2.74348996845579
  N   7.12563612280920      1.93734318733817     -2.12275846286010
  C   7.19073389577735      2.08602117219034     -0.78445822303647
  O   6.81610994332213      1.25320321620129      0.01959461484244
  H   2.71045717760637     -2.87379199597403     -0.56151278026192
  H   2.80421814329481     -1.47736450081260      0.53343916035942
  H   4.19003665401781     -1.89546302337829     -0.49984336217350
  H   1.44525960932941     -0.92181226491939     -1.52772252539067
  H   2.81705738308765     -1.34420077547678     -2.55655057220837
  H   2.76127224377691      0.94941677762775     -0.52565426361463
  H   2.60853018257549      1.08546295611096     -2.29345119536339
  H   5.08606288051227      0.60159232728504     -0.77292753080254
  H   6.99733807364871      0.66924260996281     -3.77438555761530
  H   7.01980748878651     -0.13450419801899     -2.17724782815892
  H   7.38399118230381      2.71879132533648     -2.71116358811709
  H   7.63377569399041      3.06116801974662     -0.47570383505383
