20
Coordinates from ORCA-job frag_134
  C   0.94147746668551     -1.59126405577080     -0.35461568198267
  C   2.41665796329325     -1.47805295060037     -0.03084454811199
  O   2.86552761590358     -1.70324546884849      1.07732665350922
  N   3.19897473811292     -1.11703726027847     -1.08316303270489
  C   4.63212576919744     -1.03646196796549     -1.00720164082233
  C   5.25845972436791     -1.65653980219944     -2.24441768287832
  N   4.74003923009863     -1.02372127814394     -3.43944077030207
  C   5.11488773686041     -1.67230829066972     -4.67335101292533
  H   0.38635081820489     -1.73751833083810      0.57869401021063
  H   0.76255934376967     -2.45207725720852     -1.01822380942952
  H   0.57114502950055     -0.68996350258843     -0.86679809135151
  H   2.80487687757186     -0.97933856705318     -2.00765122818125
  H   4.95426112355045     -1.55252887004583     -0.09125388329490
  H   4.96526454046375      0.01626495765366     -0.91011694357682
  H   4.98712530667675     -2.72599960220103     -2.28100534665343
  H   6.36730777832394     -1.61314533660895     -2.16335343179058
  H   5.02651042904573     -0.04648121168968     -3.45804105090980
  H   4.68560548137837     -2.68658702358822     -4.70688549038579
  H   6.21119703729036     -1.77594346894859     -4.82291037180431
  H   4.70644598970394     -1.11795071240637     -5.53164664661430
