21
Coordinates from ORCA-job frag_311
  C   0.93498636371989      0.04609256682539     -0.00768970917191
  C   2.45856397728080     -0.01259389546342     -0.11666483724871
  C   3.00881579152484     -1.22227259860074      0.63080893522962
  C   2.90056551999635      0.00386178450809     -1.58465083397456
  C   2.46155929478070     -1.16611587714101     -2.44789450139582
  O   1.83560211139642     -2.11936674743080     -2.08125553488431
  O   2.84257071963673     -1.06836281961238     -3.73506120649723
  S   3.02007640312136      1.56592739163213      0.66782398057077
  C   4.81588395586687      1.40282900221448      0.71493498093780
  H   0.49643148873352     -0.84858579459986     -0.47146922876783
  H   0.53251177845342      0.93842609196224     -0.51305179336647
  H   0.62727041946591      0.08401382567702      1.04771829640827
  H   2.58458528838204     -2.14358637719975      0.20616267542443
  H   2.74396819828461     -1.16320007372103      1.69667390686190
  H   4.10519549253364     -1.28874427685077      0.55125603902525
  H   4.00323270451154      0.04640110196002     -1.64755898919254
  H   2.53453490363736      0.93232914941207     -2.05760148189212
  H   3.31951057906431     -0.24296764122976     -3.88276805102685
  H   5.19233930176629      2.35312025621870      1.12000398985495
  H   5.25877682381222      1.26482910579792     -0.28362742967049
  H   5.14531888403116      0.59116582564147      1.37991079277585
