16
Coordinates from ORCA-job frag_163
  C   0.94257507182431      0.30969847542983      0.01925954384845
  S   2.72004006556099      0.22194624034860      0.30536284925003
  C   3.29236183544746      1.02414074980435     -1.21978074985069
  C   4.82323802736441      1.06838679069223     -1.30556517782157
  C   5.39948948051721     -0.33670508340055     -1.41857951873982
  O   6.09559920820987     -0.67922835828307     -2.33791895882265
  N   5.23036378149653      1.94550880578003     -2.37646032810360
  H   0.45139764989722     -0.13734741644021      0.89481673771424
  H   0.65019653318000     -0.25866596198919     -0.87708562892041
  H   0.60580620289943      1.35286897800146     -0.07985716605953
  H   2.93048627093434      2.06331042324493     -1.25815864517669
  H   2.88167896166647      0.49091142427633     -2.09595974988288
  H   5.18849444576414      1.47997634293161     -0.34417694410222
  H   5.12652957270082     -1.04717682347792     -0.59766545125819
  H   5.10566419042687      1.45457816904362     -3.26286918387715
  H   6.23437870210989      2.10619724403796     -2.31656162819732
