20
Coordinates from ORCA-job frag_334
  C   1.01003500728396      0.19883831218539     -0.01864731544334
  C   2.50887241985391     -0.02438543013302      0.10463465833823
  C   2.91339985265819     -0.39548896921186      1.52591516785016
  S   3.10208915838869     -1.37859929465365     -0.97438767773668
  C   2.67683187821282     -0.80957542208056     -2.66871616319055
  C   3.13612889629170      0.61322138148947     -2.95634916116578
  N   3.25145425893210     -1.81811677146775     -3.52867727791766
  H   0.67985752321014      0.99402818098687      0.67058427400319
  H   0.46175192507189     -0.72404752523289      0.22781733043269
  H   0.71709975162466      0.50264925522155     -1.03491564744085
  H   3.04618053006195      0.89663533160574     -0.17866752366012
  H   2.41972042793384     -1.32772163828668      1.84337272546666
  H   2.61654744303388      0.40150076793676      2.22588496656766
  H   4.00108855865277     -0.53996163092763      1.60914683527279
  H   1.58001363932690     -0.87170381238036     -2.77616813862288
  H   4.22212919789507      0.70380514986535     -2.79179235054902
  H   2.63096105224616      1.36117985643025     -2.32719872478016
  H   2.91921517665843      0.86552642666344     -4.00789648905786
  H   4.26534264547789     -1.72032047146471     -3.56288929046955
  H   2.89848065718503     -1.72256369654572     -4.47815019789691
