19
Coordinates from ORCA-job frag_143
  C   1.24431726444036      3.13303399672129     -1.96747265586079
  C   2.75298444718030      2.98258848972748     -1.91353739114014
  S   3.20621331524276      1.41614744771061     -1.10572468885053
  C   5.01595610432021      1.55488904239839     -1.23889052364019
  C   5.71858396130361      2.34479871841649     -0.05713328018062
  C   6.21522311662016      0.94304226528399      0.38035439148963
  O   6.82146570683821      0.48609127519357      1.30437450678532
  N   5.69055793699362      0.38042080079531     -0.76057845698508
  N   5.00447175967315      3.12567157778916      0.88307510541828
  H   0.97137641860746      4.07946104150338     -2.45852635683442
  H   0.80593074533991      3.13706903793653     -0.95801305625234
  H   0.78204010691081      2.31039804857940     -2.53387107803589
  H   3.20948829745307      3.80929372458789     -1.34642094186466
  H   3.18497360021170      2.99184028400283     -2.92812422937491
  H   5.27720949332129      1.86570492364232     -2.26546419022955
  H   6.57670226789883      2.91536818599936     -0.44960901177339
  H   5.67025080021031     -0.57795864531380     -1.09194687913788
  H   4.11035443587240      2.69871628456641      1.11937009049039
  H   4.84340022156173      4.07562350045938      0.56323864597677
