13
Coordinates from ORCA-job frag_67
  C   0.93700947857951     -0.08694597176493     -0.09233463471256
  C   0.29935476777690      0.03988006499785      1.29784906355840
  N   0.68136051615647      1.22080012019180      2.02131767386534
  S   -1.53686442116685      0.00753093689233      1.05081812916364
  N   0.76000060259909      1.14532839671656     -0.83071451905926
  H   0.54431980039684     -0.99971196710069     -0.58999410336422
  H   2.01789134359481     -0.25382269130920      0.05937138373557
  H   0.55978045143629     -0.84898722715981      1.89420367690252
  H   0.74309178670569      1.98656235964303      1.34651633266296
  H   1.61319844846862      1.09531236403642      2.41367118207724
  H   -1.80948121640799      0.62196218934884      2.21935474554602
  H   -0.22681011486564      1.28248181841836     -1.04609550663904
  H   1.26624855672626      1.12501060708943     -1.71126342373661
