20
Coordinates from ORCA-job frag_230
  C   2.89884511925277      1.30581635820654     -1.05565440460155
  C   2.59974734472851      0.05456104782538     -0.24142895601915
  C   1.10919144213281     -0.13758645135509     -0.02093078253852
  O   0.27224387049167      0.70506191205183     -0.19801872311879
  N   3.14637260898289     -1.19247478785045     -0.72949633050050
  C   4.58420849968815     -1.34295752461235     -0.65211228805867
  C   4.98389692778270     -2.78100146492873     -0.94725247882448
  N   4.44625350742250     -3.21084125007433     -2.22823510115887
  H   2.39464012889533      2.17994259299200     -0.62022316250121
  H   2.52567118054215      1.19044837102387     -2.08557568943979
  H   3.97922252257763      1.50490500871191     -1.09964171067241
  H   2.99351979491213      0.19204120552191      0.78771617059292
  H   0.85241063004895     -1.16810854710769      0.33973737817656
  H   2.86099863654852     -1.33437176012954     -1.69804101339249
  H   4.90970786828644     -1.08099689764321      0.36965614426621
  H   5.12927654466881     -0.67147099201254     -1.34823023335124
  H   4.66547124767814     -3.41798830347878     -0.09661217958947
  H   6.08443097780078     -2.83039389969978     -0.98856141812342
  H   3.48303032374817     -3.51929175236288     -2.10825847365692
  H   4.95266082381090     -4.01929286507804     -2.57953674748819
