15
Coordinates from ORCA-job frag_285
  C   2.24991294091818     -0.55612396100176     -1.34699755531596
  C   2.63106805995754     -0.11667032697976      0.05942187401376
  N   3.11104290665804     -1.18676859829274      0.90302643160460
  C   2.18107297554663     -2.18722424072292      1.36341892554310
  C   4.42157638711282     -1.27199558753725      1.26176576497247
  O   4.91318718641292     -2.13902191879947      1.94718496012831
  H   1.91717729227110      0.30801597092233     -1.94179070854389
  H   1.42787237769052     -1.28818831264830     -1.33763244570914
  H   3.10980690171665     -1.01624339797621     -1.85766412406794
  H   1.76669824256895      0.36576328334595      0.55197386776720
  H   3.42365634031844      0.64782587374447      0.00814681545486
  H   1.33118747488658     -1.71797813570518      1.88730093984990
  H   2.71493167656521     -2.85078491973079      2.05618098188549
  H   1.78416710233073     -2.79264161323525      0.53184668024624
  H   5.01754213504565     -0.42226411538310      0.84571759217101
