4
Coordinates from ORCA-job frag_8
  C   0.97307012127723     -0.00190009947157      0.05147495029052
  O   2.16921017920762     -0.00190721566301      0.05149997688603
  H   0.37019923466940      0.62899538884290      0.75424917323129
  H   0.37022046484576     -0.63278807370832     -0.65132410040784
