23
Coordinates from ORCA-job frag_309
  C   0.91369789466891      0.09345018256095      0.09564718874480
  C   2.42014348249152      0.03597385748517     -0.00825953427375
  N   3.07440055530740      0.94097161124089      0.89714959597110
  C   4.42713006483223      0.49315977019624      1.13596396092548
  C   4.41897528285002     -1.04283886248686      1.44238427286028
  S   3.09081962982357     -1.68027907227574      0.32992309295101
  C   4.00955927518476     -1.25510837898132      2.90047754504233
  C   5.73430996788763     -1.75899381328955      1.16034992803165
  C   5.31100518427686      0.91287358690317     -0.02893614818703
  O   6.50795924269708      0.82714355215541     -0.02531553104808
  H   0.56100781048058      1.11341166872888     -0.12381515210896
  H   0.58489633725054     -0.19333108851976      1.10694515960646
  H   0.44307353937308     -0.59581008508172     -0.61869972778057
  H   2.72729004655691      0.26863127268475     -1.04157006257916
  H   2.55759209154561      0.99551862495858      1.77119316182735
  H   4.84559604886475      1.01716422704919      2.01261332530443
  H   3.08293678828384     -0.71509887698224      3.14666768034865
  H   4.80776506918026     -0.91319556764813      3.58140919726539
  H   3.82388337685249     -2.32104319210522      3.09623212734955
  H   6.00322174384883     -1.72153105917233      0.09756649492268
  H   5.65817493039903     -2.81549149472555      1.45805347531732
  H   6.55315533885752     -1.29712129324497      1.73284141919389
  H   4.75700629848652      1.36914443055018     -0.89042146968484
