14
Coordinates from ORCA-job frag_203
  C   0.05194415206746      1.34699770080233     -0.11431997728776
  C   -1.35020521643500      0.74321071916338     -0.00205673709008
  N   -1.12147475660090     -0.62303927218578      0.40722484245260
  C   -0.15067362141245     -1.25964831026057     -0.45527642964300
  S   1.07991552145955      0.03814783667044     -0.85719635051811
  C   -2.12458822830658      1.49387890865930      1.06155455785193
  O   -2.92637568911739      2.35608071907104      0.83254732287127
  H   0.44562913223143      1.60881330706690      0.88098497060577
  H   0.05712050361157      2.24291956377978     -0.74985423645727
  H   -1.88317703566755      0.86332621414776     -0.96812212328751
  H   -1.98232814582549     -1.16344254830074      0.45545083454251
  H   -0.56962396449617     -1.63694022819810     -1.40885498103379
  H   0.34496231660678     -2.09544695036449      0.06362530803867
  H   -1.85412496811525      1.18424233994876      2.10619299895478
