18
Coordinates from ORCA-job frag_255
  C   0.73121364878829      0.01660167244413     -0.14897057182274
  C   2.20651892459694      0.15842963428660      0.16993726640581
  C   3.05854233834720     -1.04141295192177     -0.29384590671200
  N   4.37312028402510     -0.52595007961563     -0.60001797245655
  C   4.59724725381355      0.90454274310108     -0.43760240623710
  S   2.93660630779378      1.64482544616987     -0.63088088061508
  C   5.49996132990454      0.87981167316440     -1.68660447192912
  C   4.99851535719489     -0.56113026882227     -1.84032029816570
  O   5.01778255323307     -1.40549207960066     -2.68708221658329
  H   0.32645980347293     -0.89179428003867      0.32459374618878
  H   0.57237419083685     -0.05816817658220     -1.23582667964323
  H   0.15418952710609      0.87347787688410      0.22823411168331
  H   2.33569336157725      0.28563432889347      1.25840837800644
  H   2.64078975456027     -1.50179276391229     -1.20513972170620
  H   3.08241307670426     -1.81098551353736      0.49598643233120
  H   5.05711418563699      1.20394314125417      0.51732268930756
  H   6.57757366891092      0.97963079966701     -1.49244798709241
  H   5.19788443349705      1.54312879816602     -2.50794351095968
