19
Coordinates from ORCA-job frag_167
  C   1.14992137194691      0.24750073178173      0.43592552116104
  C   2.63763328390330      0.47322080983925      0.27915968205565
  O   3.10013176248453      1.28276870229206     -0.50097805037057
  N   3.41613395958587     -0.32795728847071      1.06302507762152
  C   4.84994149430247     -0.21084261152779      1.10062601206681
  C   5.36603740248303      0.23624283944307      2.46176366223255
  S   4.99264736492706     -1.02606570343989      3.71993288667215
  C   5.14120443768709     -0.03384042058269      5.21851992061544
  H   0.61486503684037      1.03273015284080     -0.10965082876125
  H   0.84707666554300      0.25967210036737      1.49414165150302
  H   0.87024562837665     -0.73180643117884      0.01729840680065
  H   2.97987732452248     -0.91346529644743      1.76542485345531
  H   5.12085084043754      0.53526561293359      0.33879337052228
  H   5.32629320011098     -1.16567894285332      0.81337711263753
  H   4.87402258449957      1.18027378862801      2.74763932702987
  H   6.45337219188658      0.41037995299851      2.41705364153554
  H   4.93402770117533     -0.69887899810031      6.06862821761629
  H   4.41326517206283      0.79200411907044      5.22890490131367
  H   6.15825257722437      0.37077688240616      5.33191463429245
