15
Coordinates from ORCA-job frag_21
  C   0.99781672338604     -0.08009824866916     -0.00882001359990
  C   2.32886824791554      0.02647006687221      0.11137267777250
  C   3.08077316081203      1.24264534352428     -0.14783076480208
  C   4.41473555216671      1.33967889761130     -0.03190535693246
  C   5.20438057191232      2.57407523519035     -0.30196762381879
  C   6.28926343382808      2.85372298389865      0.70851185817031
  O   6.59582303882588      2.11996938010008      1.60770649228961
  H   0.47768169757661     -1.01777029573403      0.20061593474254
  H   0.38564605781364      0.77235497237797     -0.32047067515963
  H   2.91187856214827     -0.84748104404270      0.42649883801754
  H   2.50175823958404      2.12359450971367     -0.45517417018871
  H   4.98973532941925      0.46499656746420      0.29267435654352
  H   4.56593925432301      3.47062637414122     -0.39180458852765
  H   5.73100627879908      2.50625313834622     -1.27724428436776
  H   6.83149385148947      3.82316211920574      0.54563731986099
