14
Coordinates from ORCA-job frag_113
  C   0.91510753545882     -0.07686660813503      0.15094549960991
  C   0.44759757190969      0.86460067484196      1.26321144659335
  O   -0.64423223741990      0.80577128368854      1.75182277406901
  O   1.36569032789279      1.76656694649088      1.58912891337394
  N   2.35679857272747     -0.01828253540886     -0.00583309216434
  C   2.85816311470817     -0.25813786761867     -1.34123953192463
  S   4.66525881067853     -0.19820470711396     -1.41695711192528
  H   0.43499992017049      0.28240519976719     -0.77466021253223
  H   0.50194476921538     -1.08185777726870      0.34565213255349
  H   2.14633862498098      1.52964777503495      1.03600415876990
  H   2.82682103895059     -0.64017047422377      0.65105272278190
  H   2.42146846051670      0.48481097516970     -2.02742677177800
  H   2.60322753858375     -1.25980213411876     -1.74037652078244
  H   4.78011595162651      1.09501924889451     -1.04282440664458
