24
Coordinates from ORCA-job frag_313
  C   0.93170685263667      0.13649280586608      0.07477836517936
  C   2.45020073440541      0.10684074193786      0.04013373169875
  S   3.09172087993752      1.61252794824119      0.82527078306406
  C   4.93124862794331      1.41054622596004      0.71091735070947
  C   5.38557993634017      0.18282486318770      1.49510960036112
  C   5.37350051813482      1.34130220329663     -0.74769491769401
  C   5.42816123694214      2.70126885341573      1.37553868353739
  C   6.93134739560561      2.88799841583491      1.46606667421819
  O   7.76470640108388      2.12429310555927      1.07042521369890
  O   7.30110542470101      4.03888466907578      2.05678797117877
  H   0.52116534860301     -0.76807299004727     -0.39926387211531
  H   0.53683081414882      1.01135404837945     -0.46393969155109
  H   0.55672207233239      0.17795211670975      1.10863296054341
  H   2.80865867770006      0.05154989771719     -0.99976411933321
  H   2.82785894166179     -0.77766166263727      0.57634474042789
  H   4.99055574733303     -0.73985490822378      1.04555789586107
  H   5.03545602737127      0.23132114103391      2.53699094178922
  H   6.48364498457190      0.11827260650992      1.48655630472001
  H   4.98000812924610      0.43708714514229     -1.23476909211456
  H   6.47150546446987      1.30317698314119     -0.80510155414169
  H   5.01319103575502      2.21609263752040     -1.31012974217509
  H   5.02202416316043      2.76158676527269      2.40247811245144
  H   5.01472007231078      3.57268040977559      0.83443263117159
  H   6.52498051360495      4.54753597733075      2.32134102851433
