19
Coordinates from ORCA-job frag_354
  C   0.92613714064994      0.05337441932154      0.08940321819712
  C   2.44850401156365      0.06101751209251      0.02873422628053
  C   2.95756554314467     -0.10466994468801     -1.39763310500611
  C   3.02628478771321      1.32514252594247      0.66392401194518
  N   2.65276178227200      1.46326013897606      2.05088654043394
  C   3.11868216999648      2.67435328880363      2.67513679772724
  H   0.51239014120292     -0.89901297951467     -0.27777801681411
  H   0.51180736119849      0.86183702696018     -0.53656775685474
  H   0.57798689740393      0.21972160407597      1.11840270403745
  H   2.82018523169939     -0.79923355420807      0.62089645670412
  H   2.62751345636836      0.73598697402205     -2.03140837391353
  H   2.57303383008952     -1.03036218526720     -1.85303152125727
  H   4.05814272692852     -0.14156697272112     -1.43745503673079
  H   2.63939167360100      2.20500043428909      0.11498957300932
  H   4.13139303606912      1.33646456929910      0.51072618698619
  H   2.97083204712395      0.65054713216279      2.57436495949827
  H   2.64747950560843      3.54815381294949      2.19536922665604
  H   4.21983233910959      2.83023009340577      2.62151182672991
  H   2.82617631825679      2.69205610409840      3.73612808237126
