20
Coordinates from ORCA-job frag_319
  C   1.20052659623241      0.65440737388418      1.37335195566339
  C   0.78939463167716      0.27030912601449     -0.04420370218022
  C   -0.13156449325967      1.33596974563572     -0.66027998164418
  N   -1.43466435919890      1.15263030085132     -0.07690820528596
  C   -1.85433591864960     -0.22323232710888     -0.08220650745687
  S   -0.30953782096811     -1.22342177246883      0.00341273001080
  C   -2.04420685888863      2.06661196115039      0.73162320645183
  O   -3.05014107650357      1.86838522206417      1.36940424127728
  C   1.99989087717677     -0.01264719092228     -0.92115069547842
  H   0.32177876273342      0.87948824819664      1.99567679519413
  H   1.85800547952435      1.54087605670293      1.35877136058261
  H   1.74515772158453     -0.17029370265984      1.85579998012297
  H   -0.17614385190480      1.20229228323691     -1.75591221746242
  H   0.23231895530771      2.35532496746450     -0.45392521492113
  H   -2.38924032008181     -0.48558967139996     -1.01017263771016
  H   -2.51806326938106     -0.39929716316080      0.77653921382706
  H   -1.50422067870198      3.04429042753373      0.72823376460917
  H   2.63827926645201      0.88428110151141     -0.98596131885461
  H   1.69723208674793     -0.30558206678226     -1.93687216990279
  H   2.61143427010182     -0.82470291974355     -0.49972059684250
