22
Coordinates from ORCA-job frag_299
  C   1.04940623773845     -0.15510379842946     -0.29951993202755
  C   2.56822357578010     -0.05848860771184     -0.27139097737892
  C   3.23108704849501     -1.39242933213426     -0.57743084878836
  S   3.04113674561174      1.25045721501301     -1.46169981110761
  C   4.81556401924885      1.38206547103563     -1.10250214192260
  C   5.34416036445108      2.74084913729484     -1.55785605977189
  C   6.80864179396763      2.86187025632311     -1.16475189367372
  O   7.68544571982757      3.10889847825242     -1.94763900170407
  N   5.08820441363402      2.96190514694189     -2.95619368204496
  H   0.70251043557189     -0.90651592800436      0.42682883056311
  H   0.69379538997262     -0.46124146933052     -1.29659319462234
  H   0.57964413255758      0.80798809357071     -0.05030963462420
  H   2.88410079357002      0.28837318836353      0.72910682046738
  H   2.95896782119039     -1.73306438492930     -1.58874269120435
  H   2.90717176902226     -2.15937035266954      0.14550767299976
  H   4.32868383463000     -1.33028648719074     -0.52439007176787
  H   5.37619604232096      0.57853927061344     -1.61237759316261
  H   4.97387610268704      1.26031463052051     -0.01791723746761
  H   4.80429524125081      3.50869692575465     -0.96770344520780
  H   7.02905037402987      2.70933326531169     -0.07321061650119
  H   5.60643411328398      2.27919694556598     -3.50877617360949
  H   5.45670403115806      3.86951233583859     -3.23443831744310
