15
Coordinates from ORCA-job frag_83
  C   1.07585549042771      0.01625558673439      0.25209401043480
  N   2.51951528913148     -0.01125126463349      0.19478670867621
  C   3.13701753995004     -0.63739663572094     -0.94926982310594
  C   3.05540066478102     -2.16018879554434     -0.93792034064318
  O   3.13212059548857     -2.81859949903409     -1.93245087039001
  O   2.91982075081726     -2.70720062742402      0.27489955566271
  C   3.28385478380906      0.77573945045813      1.02109595672948
  O   4.47910287677722      0.90754028985553      0.93814051045908
  H   0.66254207581029     -1.00479181284909      0.24480127328570
  H   0.64825163299948      0.56768097987631     -0.60292840733761
  H   0.75165312571253      0.50937472244951      1.17973132625797
  H   4.20274679438599     -0.35642289903730     -0.94411958101327
  H   2.69624651014849     -0.28696330366081     -1.89570540384182
  H   2.89145525655268     -1.99236843213614      0.92902599258828
  H   2.66711661320815      1.27299224066634      1.80761909223760
