25
Coordinates from ORCA-job frag_323
  C   1.12933260220902     -0.50239789867542     -0.51650262267553
  C   2.51005294711496      0.04727613756163     -0.17030174374821
  C   2.50240007138139      1.57279543488602     -0.17355134112547
  C   2.96374453382777     -0.47354496885572      1.19342303731356
  S   3.81024564558489     -0.58465111566866     -1.33379035531649
  C   3.17702754084732     -0.10521347778024     -2.96204570415252
  C   2.42139384022050     -1.22970114489319     -3.66715822003857
  N   1.81203283181823     -0.79626255247308     -4.90668957889742
  C   0.68940464407642     -0.04149983473022     -4.90539197315880
  O   0.09673950795625      0.31046050170653     -3.90789406359299
  H   0.39832353201307     -0.16165944322525      0.23630479825010
  H   1.13409001588287     -1.60347476413333     -0.51203781511711
  H   0.77208587102062     -0.15525076668610     -1.49849104956798
  H   1.77596773437506      1.94618126382716      0.56742937371498
  H   2.20304810509240      1.97844793839586     -1.15176394434369
  H   3.49513719127747      1.97405107102068      0.07801793399751
  H   2.26526860279241     -0.12745712948677      1.97220429371683
  H   3.96900496769283     -0.10464857905186      1.44976875367940
  H   2.98273919171907     -1.57419231614356      1.21254010650972
  H   4.04054412664510      0.21760984527330     -3.56481809818717
  H   2.51616754789288      0.76713932072618     -2.85330963351793
  H   1.62800149411100     -1.60420651022095     -3.00454883093620
  H   3.09595263760450     -2.07217020336997     -3.87677165988299
  H   2.26127472451852     -0.99566718139601     -5.79054986228733
  H   0.34982009232539      0.22813637339300     -5.93447180063564
