17
Coordinates from ORCA-job frag_152
  C   0.99223083997288     -0.05642736207721     -0.02094392613264
  C   2.50046036444747     -0.08419100899241      0.14287478142168
  S   2.93854767916859     -0.39512842772172      1.87758393773880
  C   4.74398830300309     -0.36814411247742      1.73261225611814
  C   5.37468329600591     -0.60298770829226      3.09010342812280
  C   6.87694612184936     -0.60060845408804      3.05682439331007
  O   7.53700910896413     -0.43413451827878      2.06653078878964
  H   0.72314987286611      0.13153741137619     -1.07131402323585
  H   0.53885437488747      0.73711080026097      0.59250412770692
  H   0.54154671781319     -1.01509075472959      0.27880391219506
  H   2.94645380138565      0.87565766894315     -0.16775596734972
  H   2.94742724151102     -0.87442044920774     -0.48317027674969
  H   5.07559168717682      0.60174012753411      1.32738027566301
  H   5.07701038282571     -1.14354801966222      1.02387046776115
  H   5.05057318331205     -1.56684025816419      3.52572631556162
  H   5.05363306848921      0.15967912142436      3.82421762887561
  H   7.36639395632133     -0.77080405584720      4.05205188020338
