16
Coordinates from ORCA-job frag_54
  C   1.14941123902775      0.02705219266331     -0.15592866097762
  C   2.65796064132122      0.07831056218835     -0.05152933091806
  O   3.24592360970705      0.84251824007750      0.68833937007916
  N   3.31842602214780     -0.79768340880054     -0.86378012013181
  C   4.75506944303400     -0.90772834779174     -0.84487099005759
  C   5.27938900396062     -1.84153846998303      0.23885650440176
  S   4.66879635627051     -3.55213538645725      0.10119187214131
  H   0.72470068180026      0.78368985606009      0.51296703187612
  H   0.76896121641452     -0.96518034467688      0.13387162890017
  H   0.81968281642783      0.22436180348953     -1.18745995713700
  H   2.79192252899299     -1.47760892971983     -1.39562933309038
  H   5.16360679354164      0.09992023243084     -0.66852241068302
  H   5.09606858070304     -1.25099798005361     -1.83378390294964
  H   5.03631395121528     -1.44204704476148      1.23477307653119
  H   6.37583786848210     -1.91660555934615      0.17383466237490
  H   3.41872924695336     -3.30002741531911      0.54397055964053
