23
Coordinates from ORCA-job frag_347
  C   0.91961976551745     -0.00915480965458      0.29431124693793
  C   2.42417202145098      0.13206522413433      0.07554296656993
  C   3.11902923156765      0.55146223796667      1.36691329101453
  C   3.01024718779567     -1.18173753606811     -0.45992000250558
  C   2.55069421577071     -1.55917068615331     -1.85894147579845
  O   1.77766932049385     -0.93899738369155     -2.53618207397340
  N   4.46190084812583     -1.24536393590143     -0.45755776802800
  C   5.20629888482083     -0.31907558064319     -1.27399869209633
  C   5.08548451663776     -2.12719970666536      0.37640806365533
  O   4.52793187066320     -2.90401751576453      1.11574221691822
  H   0.49632283368742      0.93410373099850      0.67162207604131
  H   0.70785459724869     -0.79049503616512      1.04354910803349
  H   0.39684836296302     -0.26434081930752     -0.63652062822832
  H   2.58201916127091      0.91158702714537     -0.69135806515629
  H   3.01955905201045     -0.23138551895792      2.13635816820644
  H   2.66937011747120      1.47434484384226      1.76293980795568
  H   4.19394914640366      0.73887822569902      1.22504161527431
  H   2.69995870213765     -2.01169014368557      0.20449842684148
  H   3.03796771831769     -2.49598094101152     -2.23970924233859
  H   4.91520978154381     -0.39057952529956     -2.33519678095856
  H   6.27951115631172     -0.54895761461672     -1.20149746416727
  H   5.05739394064243      0.72505534287583     -0.95042834397677
  H   6.19778756714738     -2.05744987907599      0.29888354977889
