15
Coordinates from ORCA-job frag_99
  C   1.07588022985100     -0.07973055828712      0.43989472881893
  N   2.41638022583692     -0.08427542470985     -0.05187614607095
  C   3.31817076949827      0.98485380414142     -0.44262381062058
  C   4.37051133269622     -0.10565599473571     -0.77840323934015
  C   3.24952182597190     -1.10909585815954     -0.40508498129243
  O   3.09838400469041     -2.30318430608255     -0.42871378994130
  N   4.93397416196757     -0.09384359857781     -2.09658653388991
  H   1.00052283447141      0.43165909600251      1.41440782590738
  H   0.76311577138258     -1.12617607567150      0.56659101963145
  H   0.38192271266244      0.41151993844052     -0.26412988596300
  H   3.57949205799141      1.68899925454149      0.36592850954605
  H   2.98625310511678      1.55566317190559     -1.32806968219596
  H   5.18181715728788     -0.13358985690211     -0.03241301842984
  H   4.21144846622414     -0.26055053076521     -2.79594041295178
  H   5.60680534435103     -0.85079306114013     -2.19718058320789
