22
Coordinates from ORCA-job frag_125
  C   1.10290126065587     -0.66771416735114      1.32793475775597
  C   2.60317175997629     -0.68499871021712      1.52141032796820
  O   3.13994407525568     -0.39163219999611      2.57146335965955
  N   3.32100264956900     -1.05152946573767      0.41932169637868
  C   4.75631285248976     -1.16251772296629      0.46428010623282
  C   5.23756188508752     -2.51934830817512      0.96618991212748
  N   6.68105621742123     -2.56198780078772      0.99361429009319
  C   7.25494712818916     -3.83073346631798      1.35339598138007
  C   8.73673898697176     -3.87301942591918      1.06117164856826
  O   9.51889878909395     -4.58949475478501      1.62258023055933
  H   0.63453945878488     -0.29923931225231      2.24752345079167
  H   0.72700758636263     -1.68045299561835      1.11369636808913
  H   0.81904870647284     -0.01740129050578      0.48618317628120
  H   2.83156429845421     -1.34635876803120     -0.41446375499481
  H   5.12349328513222     -0.37624302039398      1.14323090915306
  H   5.17884186594465     -0.96726432281532     -0.53321387272280
  H   4.87823935826056     -3.30786386615661      0.28075140666097
  H   4.76320475076463     -2.71459305975402      1.95167295105259
  H   7.03259874274177     -1.83196097359048      1.61071222612047
  H   6.80784043281576     -4.61508594774806      0.71199436420688
  H   7.09351319074834     -4.16588685870470      2.39958262964496
  H   9.04947271880724     -3.17407356217581      0.23926783499312
