20
Coordinates from ORCA-job frag_32
  C   0.81816798263721      0.53840339187527     -0.55423725568810
  N   2.20980592053596      0.69462246165350     -0.88392998883364
  C   2.97065094254647     -0.33236223698328     -1.34688540237818
  O   2.54208124441617     -1.45601331071451     -1.52235313465246
  C   4.43454609746380      0.01173020098815     -1.59955572597651
  C   4.95791208356278     -0.66738935394789     -2.82073252184951
  C   5.74023445150479     -0.09403475507698     -3.74877500029862
  C   6.23381395996395     -0.78443416585462     -4.92813401785004
  C   7.02586618226894     -0.23162286752740     -5.85817107007045
  H   0.61782315966694      0.80024199651830      0.49734722531510
  H   0.55919328187330     -0.51700497137521     -0.71111217058660
  H   0.17386337205431      1.15704932437855     -1.19937094566631
  H   2.63599226626711      1.60587307679429     -0.78874727213602
  H   4.97759009804939     -0.36329513121861     -0.71042962629666
  H   4.60498520578571      1.09956154292566     -1.64083310709506
  H   4.64604231455452     -1.71170430384360     -2.93493631920828
  H   6.03849152502724      0.95628076115997     -3.63089385314799
  H   5.92142353831247     -1.82961046743458     -5.04274629107531
  H   7.35919489449507      0.80783147974416     -5.77716977964211
  H   7.36712147901375     -0.79722267206117     -6.72823374286320
