21
Coordinates from ORCA-job frag_317
  C   0.91739889595421      0.01234104468802     -0.17385455468498
  C   2.39195282869488      0.14041046415795      0.18196426446385
  C   3.22153630117161     -1.03889714748788     -0.39063819640006
  N   4.51390571927375     -0.51651303786089     -0.77067622533023
  C   4.75376372521522      0.90971883436430     -0.59422186960928
  S   3.08596108632906      1.65166446948234     -0.64308153538067
  C   5.55783717653686      0.91271263146611     -1.90977924362862
  C   5.04598629152810     -0.52498541916584     -2.05414553759615
  O   4.99868261157975     -1.35078033437611     -2.91826651341961
  C   2.58221223278571      0.24990727889083      1.69327300893486
  H   0.77240954745186     -0.01091546444880     -1.26399552679520
  H   0.33582610670469      0.85087909765650      0.23780938203679
  H   0.50741335845443     -0.91691099283270      0.25410225910309
  H   2.74522751214324     -1.47123004799898     -1.28564308355934
  H   3.30078213768714     -1.83479584860531      0.36878947630653
  H   5.29148113134054      1.18765603594203      0.32558936185208
  H   6.64701871367775      1.01443139830789     -1.79919924196729
  H   5.18933413339469      1.58975275543284     -2.69204142401831
  H   2.16586024054058     -0.63916614594327      2.19642937220333
  H   2.07180706169580      1.14049493319011      2.08684362750532
  H   3.64650318784011      0.31972549514085      1.96494219998389
