18
Coordinates from ORCA-job frag_235
  C   1.02520505597109      0.24155428346446     -0.01982354449559
  C   2.52115414289041      0.09188903966476     -0.25309910253507
  C   2.84940649022721     -1.09147473682050     -1.15531510908367
  C   2.59736811602085     -2.43730273593958     -0.50151408965015
  O   2.33411405817867     -2.59072849381243      0.65645203597255
  O   2.71695632261606     -3.49809372005736     -1.31942293197275
  S   3.14452763004876      1.65843621662809     -0.95654782016373
  C   4.91524223088221      1.47354991590497     -0.66585748821291
  H   0.62473934779626     -0.67830751664081      0.42962239367695
  H   0.49346845269568      0.43135801207586     -0.96646556000518
  H   0.81879904215222      1.07919724750124      0.66158741294441
  H   3.02029498018450     -0.06219245840698      0.71791274730192
  H   3.91413355557678     -1.07750823096790     -1.44750924663147
  H   2.27531092592184     -1.01814179274268     -2.09584532194645
  H   2.92453590198560     -3.20783711298950     -2.21568761224425
  H   5.39370730150641      2.40156670607558     -1.00963178848023
  H   5.35186967735924      0.63615986682205     -1.23226512911087
  H   5.13216676798618      1.34347551024075      0.40561015463651
