20
Coordinates from ORCA-job frag_284
  C   1.14922264398326     -0.22717038595927      0.19566033585216
  C   0.65800689347473      1.20397688099586      0.37030961944939
  S   1.28561106445089      2.36409845873173     -0.88303809509724
  N   2.58107131151832     -0.35239703570901      0.29957731767047
  C   3.18816510809708     -0.58127413186380      1.48917983506860
  O   2.59782934468182     -0.70233229148019      2.54549972789114
  C   4.71533213251127     -0.67126818205849      1.40634499586042
  N   5.21039390225891     -1.73553762323763      0.56004935231041
  C   5.28181219352886     -1.61288403926467     -0.78087000769333
  O   4.90742613149203     -0.63506100007491     -1.40036329084369
  H   0.82984600423215     -0.61539329054002     -0.78389224284816
  H   0.70048381436746     -0.85304178865131      0.98329793314156
  H   0.90644436486611      1.56931366701330      1.37839330616396
  H   -0.43813025701576      1.23785723951001      0.26971973368915
  H   2.57414565300502      2.33533475763413     -0.47963142967705
  H   3.16908579650375     -0.20717116853386     -0.52164966807143
  H   5.08233368596163     -0.81689855648653      2.42902683214683
  H   5.10822073215805      0.28369593048200      1.02026370816732
  H   5.46525475774382     -2.61939873014145      0.98155650783176
  H   5.72844472218057     -2.50444871036589     -1.27833447101229
