19
Coordinates from ORCA-job frag_189
  C   0.84571423066709     -0.14148893042440     -0.08927102969601
  C   2.34461977172985     -0.24108482103001      0.14817779049554
  C   2.91183124338561      0.82050058655880      1.09179186386627
  C   2.51317601635436      0.60016707847670      2.56385558445695
  O   1.45555324953098      0.14907147571658      2.91177132610661
  O   3.45576560955606      0.99551732750343      3.40624384620217
  N   4.36273253437848      0.97987528198888      1.03216975037626
  C   4.86170087222502      1.83696029145609     -0.02440587784329
  H   0.50752404201201     -0.91534637824552     -0.79463192377898
  H   0.58052077814958      0.83888656036512     -0.51810482510341
  H   0.29795055630015     -0.25892021443087      0.85426687096195
  H   2.87737450435060     -0.14698912623922     -0.81442069772159
  H   2.59818537657953     -1.23899642242883      0.54763736156831
  H   2.47172770111467      1.80009560055045      0.82510440933754
  H   4.20475457039543      1.24750797629025      2.80714970233752
  H   4.79872397532305      0.05991368068544      0.97348906548615
  H   4.50662294267764      2.86676013937436      0.13594842747079
  H   4.55035163456661      1.52762565351023     -1.04149223915168
  H   5.96107039070324      1.85854424032251      0.00292059462890
