19
Coordinates from ORCA-job frag_44
  C   2.40018473075470      0.66494959846846     -1.31970994409535
  C   2.47323968162365      0.30974673214143      0.15710565149093
  N   3.24910499439674      1.25198889909005      0.92655721597418
  C   4.48538751450765      0.96506465775075      1.41149466105599
  O   5.02218749758614     -0.11819437387851      1.29048412527685
  C   5.14658014286301      2.10863834863805      2.18392306906439
  C   4.87262401598411      3.47298635302612      1.63834088204103
  C   4.14591219910954      4.41404208737519      2.24640705054206
  H   1.78981277167169     -0.06872026093234     -1.86811233523131
  H   3.40551460566139      0.67748019704348     -1.76696968214438
  H   1.94736945141169      1.65788874258634     -1.47306753710228
  H   2.95703019449400     -0.66826472053962      0.29367096163659
  H   1.45871050604173      0.23666371070047      0.58532602033859
  H   2.90929787733528      2.20049479074822      1.03664743571548
  H   6.22295458344648      1.88164410124786      2.17637828708207
  H   4.80727627470946      2.03422193292248      3.23127946525795
  H   5.29273297954120      3.68585165187887      0.64719738481492
  H   3.71144842522141      4.24750634206360      3.23789006577025
  H   3.97153155364003      5.38991120966905      1.78525722251201
