14
Coordinates from ORCA-job frag_174
  C   0.96747096673853      0.02501724500156      0.11573533337752
  C   2.48497158068073      0.07481334671692      0.11815630365637
  C   3.03935002108787      1.46280226619606      0.44458665097099
  N   2.56716591846012      2.45071524968154     -0.50547399992872
  S   3.22936057116093     -1.19553671867640      1.20251347498961
  H   0.57471765534869      0.80473332477524     -0.55361774769175
  H   0.57341067902670      0.22024240677293      1.12687762574899
  H   0.60006830939122     -0.95914514609001     -0.20726603920634
  H   2.85866206001554     -0.21797702044298     -0.88048871008463
  H   4.14259867389820      1.38268230861610      0.52564784924648
  H   2.67696762305536      1.74615039101521      1.44878954331955
  H   3.04667879772954      2.34479947964059     -1.39759666527534
  H   2.77147386227805      3.39172275256794     -0.17874382319805
  H   2.64260328112852     -0.76751988577470      2.34298020407531
