16
Coordinates from ORCA-job frag_157
  C   2.84901249944941      1.60336508303003     -0.21170499185183
  S   2.52119622207809     -0.15572908488316      0.03654125300794
  C   3.34741034210284     -0.35972582111686      1.64618947684367
  C   2.44694867816931     -0.03360870611918      2.91038912939669
  C   2.44567358310604     -1.57051825691910      3.11394534668274
  O   1.91482499995787     -2.34821266943348      3.85096358948980
  N   3.34889647412036     -1.72606456779529      2.08714587744800
  N   1.20174146812066      0.63257321788658      2.82243820419350
  H   2.41103801149866      1.88461146448683     -1.17908296296829
  H   3.93019649311061      1.80775826291750     -0.24234761611026
  H   2.37899471964528      2.20830118540538      0.57701624600236
  H   4.33768672847091      0.12693986450062      1.60441332246522
  H   3.06671120320826      0.42459543948895      3.69946114039517
  H   3.77820610895463     -2.55288684031794      1.68622097550499
  H   0.68921513298929      0.36099334207130      1.98506575660628
  H   1.29204733501774      1.64340808679783      2.84594525289401
