18
Coordinates from ORCA-job frag_287
  C   3.60887097056060      0.67692206505557      1.08943582625416
  C   2.45878739481913      0.16610603905075      0.23505120686348
  N   2.60458404411642      0.47236510232883     -1.15854521718147
  C   2.54816752674471      1.72130427514632     -1.90134644894019
  C   2.80501874578902      0.89667445767256     -3.19057146841719
  C   2.74005388590608     -0.33580864885635     -2.25338427341874
  O   2.75457425122160     -1.53330270929430     -2.37798839036079
  N   1.87162880786228      1.05017930136913     -4.26739048883510
  H   3.45546507870852      0.41017421524712      2.14622031238533
  H   3.69705473513250      1.77331577515976      1.03088875842234
  H   4.56340458203913      0.24021177893457      0.75958131708008
  H   1.49887288049419      0.57217590386624      0.60446324059664
  H   2.38696365487250     -0.93168822584293      0.29511368336823
  H   3.31890173896265      2.46235473603860     -1.63157859290201
  H   1.55618652558481      2.20680735598974     -1.88870264960775
  H   3.83032695806202      1.04185464542025     -3.56882084500372
  H   0.94469069718254      0.73347900919927     -3.98599133841542
  H   2.14514752194124      0.46627492351489     -5.05443463188787
