9
Coordinates from ORCA-job frag_23
  C   1.15995629124569     -0.02128157233640      0.02651828487301
  C   2.67370952208961      0.02489875910476      0.00541996224750
  O   3.30033168117818      0.96217998764447     -0.44036557550950
  N   3.28370323506203     -1.07610127819031      0.52807600972265
  H   0.77484437617683      0.90489311105215     -0.41439933656180
  H   0.78475113352389     -0.11737555718215      1.05710076260770
  H   0.78490243567978     -0.88207367444124     -0.54883544117894
  H   2.77054356193248     -1.86127557227909      0.89924028636980
  H   4.29475776311149     -1.10076420337219      0.53894504742958
