15
Coordinates from ORCA-job frag_253
  C   0.99401574270909      0.12097023017963     -0.02230638565470
  C   2.50874905810434      0.08999800570870     -0.00354710920479
  C   3.15028738000338      1.10515576391458      0.93381669268576
  N   4.50840743460984      0.65136693725951      1.11732678346441
  C   4.49511195820165     -0.72241324287891      1.56128190679277
  S   3.15627211894087     -1.52523047156680      0.59844791610070
  H   0.63600352256061      1.10023273541730     -0.38037480720625
  H   0.58431451580212     -0.05639459980546      0.98369070289753
  H   0.58472849898591     -0.64667592490392     -0.69538450053636
  H   2.90844442198286      0.24502776933834     -1.01860502871741
  H   2.55616907564267      1.14762207704770      1.87530105433846
  H   3.14052104400130      2.11269020347305      0.48537047329321
  H   5.04393647530705      1.24504437061620      1.74547831122409
  H   4.26467402966647     -0.85495091199975      2.63895777138759
  H   5.45586472348181     -1.21794294180014      1.34734621913497
