15
Coordinates from ORCA-job frag_244
  C   1.04410162649076      0.09055521847148      0.04782398377981
  S   2.83598520024722     -0.10372584257606      0.09025788520369
  C   3.31974349326310      1.62479431944086     -0.15959658823853
  C   4.83087143591692      1.73398843648579     -0.17755756674345
  C   5.29981747492628      3.16007360796766     -0.38807801076184
  O   4.56759635636832      4.09689127828730     -0.52028002595737
  O   6.63412157901273      3.32208907718691     -0.41851398953984
  H   0.60627875735157     -0.90916617198098      0.17474941443373
  H   0.70802486585398      0.50161076204364     -0.91662261093538
  H   0.68976746897244      0.73689193293389      0.86533211313541
  H   2.90909001179397      2.25638409335041      0.64441123527529
  H   2.90682537805164      2.00065260922169     -1.10940178547952
  H   5.25586429032608      1.10028522915138     -0.97744001151297
  H   5.25850197075564      1.35821798367470      0.76966661341934
  H   7.07961009066932      2.47465746634130     -0.30025065607837
