14
Coordinates from ORCA-job frag_107
  C   1.04628168763091      0.02277302735503     -0.01762065869518
  N   2.45498889156073      0.29059204744068     -0.01703554532653
  C   3.11383737069391      0.77364795255813     -1.09379036286266
  O   2.60511291047938      1.03792970678582     -2.16711091789640
  C   4.61602835451362      0.93534104488903     -0.86800978573849
  N   4.99459004433313      0.91399385104634      0.53137367557387
  H   0.83183012886353     -1.04818817990381      0.13540057571086
  H   0.65082986173528      0.32106610265731     -0.99852093492162
  H   0.52066949400581      0.59581170425397      0.76388739401356
  H   3.03932496099199      0.11872438013058      0.79770687144970
  H   4.91639427338807      1.83720060094211     -1.43282726738873
  H   5.08803616862781      0.08435112622704     -1.38630076014474
  H   4.91053731010600      1.83964814978930      0.94546062029436
  H   5.95973854306979      0.62210848582847      0.65408709593201
