21
Coordinates from ORCA-job frag_179
  C   0.94795496312428      0.17411432013399     -0.12509827162171
  C   2.44794305311761      0.06259534920313      0.07318970248132
  C   3.14892600162636      1.08382769019934      0.98215740828028
  N   4.47454709924387      0.55437522019726      1.14901976693034
  C   4.45117115223470     -0.84885933041228      1.55621199661845
  S   2.90128668211213     -1.53702099439936      0.83127590419104
  C   5.68876744719952     -1.57938127331520      1.07933786829182
  C   2.46326763031312      1.36050586310942      2.33227396035843
  O   2.99854096316839      1.14923450625328      3.38238726610572
  O   1.25081318082623      1.93223240117727      2.28572530298688
  H   0.67953639161810      1.14876197244308     -0.57087871436339
  H   0.39320690818243      0.03054762085304      0.81382190063206
  H   0.60189218545777     -0.59472671737478     -0.83125488907648
  H   2.94811530564619      0.13616182483445     -0.90522195679750
  H   3.20008214551706      2.05585081046467      0.45069436588224
  H   4.99058994094641      1.09516391686471      1.84045280909167
  H   4.33961511229253     -0.95522842851848      2.65024016856032
  H   5.76992962638456     -1.51606637678119     -0.01530355987438
  H   5.66472647497421     -2.63787044025860      1.37834887558048
  H   6.58775398803590     -1.12363766813022      1.52573262147477
  H   0.95753374797858      2.03351973345646      1.37218747426765
