15
Coordinates from ORCA-job frag_186
  C   2.95671556640943     -1.05984453018008     -0.88068682686326
  C   2.59105120523911      0.01082327641374      0.13340685736529
  C   3.15593419598708      1.39111639367840     -0.22529682872581
  C   2.58574877421896      2.43538366000057      0.71643539428168
  O   3.26261245493136      3.14703907097204      1.40973160078667
  N   4.59803057377653      1.38010960502602     -0.27160389567545
  H   2.60471702175777     -2.05159205438470     -0.55966430953059
  H   4.04678896377587     -1.09773160686892     -1.01561913481711
  H   2.50615481095976     -0.84444404790114     -1.86267019847393
  H   2.97364249114699     -0.26746152968037      1.13228961743596
  H   1.49474911925581      0.08434836086918      0.23800016013430
  H   2.76720910292272      1.65011841544718     -1.23166629065315
  H   1.46401684826978      2.50339185080198      0.73685553548684
  H   4.95258432439918      1.29982499964655      0.68228968756506
  H   4.93604454694963      2.28501813615954     -0.59460136831651
