14
Coordinates from ORCA-job frag_169
  C   1.16180905484172     -0.01829523579645      0.04724710571943
  S   2.95177404520451     -0.13438986194358     -0.13485681630198
  C   3.45439883089094      0.75808356429267      1.36005694153800
  C   4.96624233128181      0.81216804258680      1.44354046015248
  C   5.46880524544857      1.54672898391841      2.65442490758433
  O   4.76376869158613      2.05056176396105      3.48694992222971
  H   0.71297978548374     -0.53294233279164     -0.81384673373938
  H   0.82460750732805      1.02949807734035      0.04554939319232
  H   0.81865148534076     -0.51195186319022      0.96961386756710
  H   3.04526331622551      0.25861114494004      2.25313904456748
  H   3.04135455714032      1.77975895334563      1.34479482219110
  H   5.40397638764130      1.29832611893054      0.55172923774582
  H   5.40907365364215     -0.20142720154802      1.45754001820808
  H   6.58659510794449      1.60016984595443      2.73801782934551
