19
Coordinates from ORCA-job frag_271
  C   1.04693379947429     -0.01408628719638     -0.09256448694345
  C   2.56351957500186     -0.07547518291855     -0.02458891965404
  C   3.08023719454081     -1.23426851597320      0.81246857702778
  N   4.52191470646058     -1.29234094302661      0.81251329810851
  C   5.08339520419299     -2.37288584893377      1.58845139014140
  C   6.59877987891156     -2.36351028071649      1.53450776155414
  H   0.70319320466778      0.83584712590013     -0.70105495809325
  H   0.60172687889216      0.09390689470567      0.90956875262225
  H   0.62968455353455     -0.93116892656896     -0.53916192989153
  H   2.95494743715621      0.87065895126404      0.39272604467414
  H   2.99599168404814     -0.16072305566244     -1.03520559811168
  H   2.69685706592709     -2.18279272218304      0.39243001553441
  H   2.64450747209032     -1.16863718721760      1.83807557705891
  H   4.90120574196248     -0.40384156929945      1.13638973107474
  H   4.70609505738347     -3.32361937997936      1.17083174978912
  H   4.74732220708125     -2.36316589064296      2.65171833184279
  H   6.94723782258292     -2.41580890241992      0.49234077391367
  H   7.02407706159938     -3.21172622917943      2.09119396250144
  H   7.00707345449213     -1.44016204995168      1.97835992685062
