24
Coordinates from ORCA-job frag_362
  C   1.02256412726245      0.04322050694637     -0.08544551822107
  C   2.54114977289774     -0.06916791713309     -0.02183063548170
  C   3.00564427292512     -0.40463724836206      1.39216757928289
  C   3.04318777497766     -1.08398695908315     -1.04650812453841
  N   4.48380040686554     -1.14824201804830     -1.11183599835809
  C   4.99837423414811     -2.05937950606247     -2.10792288746903
  C   6.51366421083154     -1.96166547275501     -2.19189010218931
  N   7.11550073127160     -2.12960742497248     -0.87771864372385
  H   0.64828405807995      0.80707231829933      0.61348998828121
  H   0.54422534272864     -0.91410010300195      0.18215612691389
  H   0.67860891317772      0.31572134472073     -1.09556808064095
  H   2.98041324294984      0.90543778372050     -0.30212834136477
  H   2.65019934777329     -1.40413540162185      1.69657373377040
  H   2.61526583270984      0.32230595455317      2.12113905778104
  H   4.10354923344531     -0.39086939200452      1.47989293550940
  H   2.66798656229144     -0.79222075412595     -2.04359673751443
  H   2.57471188607326     -2.07405522738471     -0.82604813356894
  H   4.84823319153388     -1.45070852025397     -0.21008126038516
  H   4.56618888694631     -1.79754802191266     -3.08983286371606
  H   4.71270323596131     -3.11686300913193     -1.90659675372979
  H   6.78065317350331     -1.00038048293540     -2.67754691649121
  H   6.87731456088734     -2.76379630734094     -2.85487017087648
  H   7.10268401877853     -1.23933647662770     -0.38358099136377
  H   8.09419298198024     -2.39125766548194     -0.95851726190580
