21
Coordinates from ORCA-job frag_266
  C   3.18962724966908     -1.32513125156074      1.40506000397905
  C   2.51721474519000     -1.58072336909269      0.06663366472142
  C   2.95344205894579     -0.60851251101237     -1.02474480491655
  N   4.36038092112535     -0.70530094667115     -1.31496099423515
  C   5.34664020761273      0.30707504962271     -1.65952257681089
  C   6.37898763456725     -0.83834136015079     -1.82527732045020
  C   5.17305520010868     -1.77510601619615     -1.56853369751274
  O   4.96950779768705     -2.96280095086132     -1.61172117456172
  N   7.10562700874574     -0.90052630399769     -3.05927645272451
  H   2.85225875953371     -2.04472142245443      2.16579075913270
  H   2.96771224153540     -0.31236261681622      1.78075164570832
  H   4.28363160103963     -1.41925489974277      1.32300409824726
  H   1.42149808081414     -1.50613777461706      0.16689102902914
  H   2.73718936220473     -2.60455413172076     -0.27556331919635
  H   2.75267432867306      0.43050751122538     -0.71246264220626
  H   2.36092496123971     -0.78378572170995     -1.94283575181489
  H   5.54594022165390      1.04640773525173     -0.86591906197414
  H   5.14118781651984      0.83463158330014     -2.60800344461284
  H   7.08690207709419     -0.87172054223902     -0.98086235532312
  H   6.47233200189125     -1.06290541129310     -3.84109666491787
  H   7.74876572414870     -1.68923664926371     -3.04695093956062
