15
Coordinates from ORCA-job frag_114
  C   0.93087055398228      0.03405645178721     -0.03985373599687
  C   2.44511657666225     -0.02766268550223     -0.06994990038266
  N   2.99510075301556     -0.05810862582079      1.26813020569085
  C   4.42928923155359     -0.11486957688461      1.34029061614354
  C   4.92788790068939      0.17267080360562      2.73658655950411
  O   5.95691890005095     -0.24636370228088      3.19129493250422
  H   0.51671223661860      0.10068305139457     -1.05635137303489
  H   0.59077647935105      0.90732132146107      0.53670806726774
  H   0.50445425550472     -0.86733343491794      0.43090003746012
  H   2.84266776732880      0.86945732348505     -0.57785036011196
  H   2.77078026605056     -0.89323296515127     -0.69059771164438
  H   2.58482399472803     -0.82894977464160      1.79217108370352
  H   4.84520157540321      0.69537685258091      0.70912066112528
  H   4.90669933728392     -1.05263949619543      0.98288306855752
  H   4.24520017177706      0.84429445708034      3.32311784921386
