13
Coordinates from ORCA-job frag_127
  C   0.93196013201935     -0.07230029568187     -0.04437556061122
  C   2.44799806505477     -0.04875835279451     -0.05149522316931
  N   2.98424196516702     -0.85376427440335     -1.12315169750459
  C   4.42267358528275     -0.87287065720347     -1.18608372698526
  H   0.52726163614879      0.50886404332212      0.79747709890747
  H   0.56275213569077     -1.10584726118910      0.03148227337500
  H   0.52307537433977      0.36261932602112     -0.97174958597517
  H   2.82708039399400     -0.45730480488971      0.90290865120901
  H   2.80512073654156      1.00790158471196     -0.08286534694556
  H   2.59783920171288     -0.54258832729854     -2.01186453198279
  H   4.83199787860890     -1.35008830881636     -0.27945767767227
  H   4.89913931705025      0.13044034570705     -1.26392510592200
  H   4.75825957838919     -1.47260301748534     -2.04619956672332
