10
Coordinates from ORCA-job frag_81
  C   1.04869410623769      0.08086108721650     -0.07648579549256
  N   2.48684895246470      0.09303102907356     -0.01261270044505
  C   3.01946828883531      0.99228733026266      0.97720998430560
  H   0.70816246764714     -0.59721041137292     -0.87417575864576
  H   0.58160228063213      1.07674259768453     -0.25283556255175
  H   0.63384864747574     -0.30115214822500      0.87201967282494
  H   2.87696185465360      0.30658291445518     -0.92658621249380
  H   2.71682858320830      0.66223409972577      1.98573988145855
  H   2.68581134045968      2.05034221092713      0.87283929583657
  H   4.12027347838570      0.98128129025259      0.94998719520327
