21
Coordinates from ORCA-job frag_131
  C   1.11125610080716     -1.51086426011089      0.54961187565672
  C   2.61555558694859     -1.60525608452913      0.42358463412183
  O   3.30860259125107     -2.05249167065053      1.31658127424486
  N   3.13026607659535     -1.13588524198379     -0.74676434249005
  C   4.53273989690118     -1.18480055727767     -1.05138445717434
  C   4.75135525741785     -1.70653123433766     -2.46623283985749
  N   4.01235260413358     -0.91253706607176     -3.40089483914086
  C   3.92389169362447     -1.43365196955103     -4.74668792491854
  S   6.56442818926239     -1.90290084845543     -2.81908751913183
  H   0.72696397048571     -2.48876032570656      0.87067169478145
  H   0.60139920367156     -1.20132119100666     -0.37368902410047
  H   0.87326438930134     -0.79266700015051      1.34824726807792
  H   2.52514132085825     -0.82423534852166     -1.49730559054820
  H   5.02225047866764     -1.83108228370768     -0.31056802908533
  H   4.99789880093171     -0.18174369044080     -0.96380882065282
  H   4.37765087278284     -2.74291040007128     -2.52327811923588
  H   4.37163046320255      0.04065913620502     -3.40704543368006
  H   3.37754169199201     -2.39037025344211     -4.73863652026513
  H   4.91226512749713     -1.61220212505018     -5.21361485514353
  H   3.35628516214456     -0.73521766133890     -5.37878392807331
  H   6.89756052152289     -0.64522992380073     -2.45191450338489
