17
Coordinates from ORCA-job frag_209
  C   -1.62966955145504      0.88675904037945      0.45448003797996
  C   -0.99750091964860     -0.25494683365482     -0.36093631792895
  N   0.23883461901635      0.51104442289348     -0.42956975912501
  C   -0.22806731881257      1.50196670673783      0.42931494316786
  O   0.31824187208500      2.43382871320203      0.94637051801303
  C   1.48019716015463     -0.24326540247542     -0.44215071097905
  C   1.08114000134185     -1.72693978145875     -0.33294368789040
  S   -0.52888028992506     -1.78372078713249      0.52274873002079
  C   2.45361620482262      0.18699938439943      0.65451202144755
  O   3.18128080120074     -0.59197211343946      1.20601377625135
  H   -1.96346511884497      0.61435948622607      1.46462364568166
  H   -2.40671447550501      1.46958310018496     -0.05896697332850
  H   -1.45119762964489     -0.48489181191866     -1.33797008003232
  H   2.02519138074308     -0.08277562536201     -1.39376318962651
  H   1.83125281681332     -2.27438590267838      0.25583522878981
  H   0.99691516636208     -2.19069827259550     -1.32685443002731
  H   2.46902528129647      1.27815567669226      0.87715624758603
