13
Coordinates from ORCA-job frag_95
  C   1.20193610754013      0.00740020363722      0.09603370744919
  N   2.60486488650854      0.00964951969561     -0.16710175147188
  C   3.61972989248564      1.04515439540651     -0.08752303353743
  C   4.64288347050914     -0.00746306202502     -0.57125247639446
  C   3.45129578165031     -0.97598965758057     -0.59641427470058
  O   3.26652701645624     -2.13122918803794     -0.87060045549798
  H   0.66210358367581      0.71929090586861     -0.55156617542281
  H   0.98122122632756      0.25666446867787      1.14819802702512
  H   0.82752425955292     -1.00569361643098     -0.10981048197360
  H   3.78683925872431      1.43380755518934      0.93196456694237
  H   3.45326477117023      1.89430349320085     -0.77297141176559
  H   5.43246201781418     -0.27668423557686      0.14430357649013
  H   5.08864772758496      0.17858921797536     -1.55865981714249
