11
Coordinates from ORCA-job frag_62
  C   1.01774324432941     -0.12086356541931      0.08968979400949
  C   2.54001168497658     -0.04952842233536      0.13574570684288
  N   3.08309497736157      1.12512806332294      0.77904215818045
  S   3.24843435863094     -1.57898919195354      0.85299349678894
  H   0.60917116189306      0.77214643828526     -0.41256240915013
  H   0.60077808321512     -0.14807115412463      1.11054686145906
  H   0.66475701602588     -1.01357917289340     -0.44694616953450
  H   2.92953995811022     -0.07401435275545     -0.89701713749161
  H   2.75691602127112      1.17979147517895      1.74339537886738
  H   2.74454261765279      1.96465780881008      0.30906876327885
  H   2.49311087653330     -1.56717792611554      1.97414355674917
