18
Coordinates from ORCA-job frag_245
  C   1.12879538698730     -0.03977944734956     -0.05293251165370
  C   2.63772272641686     -0.16592478309383     -0.15147738329686
  S   3.08281127610436     -1.54143259489901     -1.24991565926643
  C   4.88758774417972     -1.41880330860118     -1.15188169260864
  C   5.52144323103137     -2.48261474143293     -2.02479870087629
  C   7.03570749664303     -2.42820700493656     -1.98742155811422
  O   7.66542841335234     -1.63991114930504     -1.34408886271466
  O   7.65720760825161     -3.35100473333431     -2.74162000525904
  H   0.85671426651482      0.79346822802405      0.61257424723249
  H   0.67765828690971     -0.95879252858005      0.35149163484292
  H   0.67940249816590      0.15278659836914     -1.03912703794445
  H   3.08123746285039     -0.34797451640261      0.84157563104149
  H   3.08353604627080      0.76149910714000     -0.54810649371949
  H   5.22177544649995     -1.54334412073585     -0.10968151456236
  H   5.21865524866999     -0.42120648657164     -1.48112123048663
  H   5.19023990401262     -2.37139553672127     -3.07337198827064
  H   5.19619053196419     -3.48980812702432     -1.70652097640850
  H   7.01138642517501     -3.90965485454502     -3.19047589793499
