16
Coordinates from ORCA-job frag_30
  C   1.22688937088585     -0.10022813537857     -0.23304204886455
  N   2.61912566037828     -0.44160334675802     -0.33551675743875
  C   3.24420522488709     -1.24560682352830      0.56360095072305
  O   2.69011261059039     -1.74225027199841      1.52371945538338
  C   4.73871005368167     -1.44846789908079      0.30427110664935
  C   5.13410772426603     -1.47957615604910     -1.13666349573184
  C   5.85125190034987     -0.53952145474508     -1.75798936985705
  H   1.08009999892764      0.98201189078017     -0.08078500474969
  H   0.81854561449316     -0.63428951434616      0.63520068842591
  H   0.66694865253009     -0.40494750873117     -1.13257204537264
  H   3.16785012877457     -0.08322938389387     -1.10772745499216
  H   4.99608441352027     -2.39074499912492      0.81058556643471
  H   5.27204049077044     -0.64235071500330      0.83632469159327
  H   4.77673070820537     -2.34256465800202     -1.71294991794615
  H   6.23200372708789      0.33531535255593     -1.21958792443906
  H   6.10009372065129     -0.61614637669637     -2.81976843981776
