16
Coordinates from ORCA-job frag_175
  C   0.97234974254888     -0.00805883002686     -0.11659964892771
  C   2.49074032994963      0.05217237916503     -0.04863429769640
  C   3.00863376352226      1.44542899004298      0.38637526949942
  C   2.64526536010929      2.45965560204232     -0.68339614452319
  O   1.95122531155144      3.42033748645702     -0.48115839682742
  N   2.53103801350441      1.80880782912602      1.69852305513701
  S   3.17663203587288     -1.22742052885283      1.05841179205728
  H   0.56816339228266      0.72113225395852     -0.83929472877385
  H   0.53928571470276      0.21224661650761      0.87104803292939
  H   0.63755154225882     -1.01092656930343     -0.41422156332697
  H   2.92160681582054     -0.18344975510959     -1.03731178281244
  H   4.11072820655678      1.37094321710857      0.39011296585691
  H   3.05044328114280      2.24168042879973     -1.70592314930916
  H   1.70991923063837      2.40649652577666      1.59898649798211
  H   3.22369422939620      2.36521375692785      2.19173858199334
  H   2.80502303014225     -0.55545940261961      2.17474351674168
