23
Coordinates from ORCA-job frag_360
  C   3.08087365677174     -1.35379487444539     -0.12881452999700
  C   2.55334449335817      0.05747334799226      0.09366791824437
  C   1.03736647790823      0.11964074632260     -0.03211964664561
  C   2.99204038986734      0.61890712098617      1.45057316765855
  N   4.41934021813316      0.68225555293474      1.62591837695208
  C   5.15802716019182      1.69413391347031      1.12067193779072
  O   4.70020723313359      2.65377099775565      0.52750731873455
  C   6.66108749608485      1.52604656413601      1.32498380149927
  N   6.99750288237557      0.52733597926333      2.32024733578426
  H   2.80784561226538     -1.72849487095935     -1.12757759396797
  H   2.66206267545909     -2.05478132231204      0.61390167278762
  H   4.17861068209514     -1.38995068827004     -0.04765401656268
  H   2.99435464725691      0.72274947335291     -0.66963590547700
  H   0.55005673959392     -0.51289981559289      0.72956086186166
  H   0.70252489073929     -0.23570716334887     -1.01895436554579
  H   0.66365845896169      1.14759987642502      0.09687921163304
  H   2.56346284681093      0.00864657359677      2.26448538571231
  H   2.59628199192752      1.64170270349225      1.55680048620211
  H   4.95099245104790     -0.06809659880767      2.05889227228452
  H   7.06489954860255      2.53974563130910      1.50345544988324
  H   7.05921662517647      1.21124949258586      0.34620463830746
  H   6.97243133950511      0.92451413695750      3.25675870039000
  H   7.93361148273361      0.15895322315577      2.17984752247029
