12
Coordinates from ORCA-job frag_75
  C   0.96283732738293     -0.06730923774890      0.05265540093766
  C   0.41890261878833     -1.14464981495969      0.97774073290214
  N   0.89371369741027     -0.93645073832489      2.33500831917956
  N   2.41398153462417     -0.03140496314018      0.11178651250123
  H   0.48095905047255      0.89728117078287      0.32019605540369
  H   0.65477206166437     -0.30337965799963     -0.97978272564613
  H   0.69231406172507     -2.13572150283761      0.55721722484294
  H   -0.68245565982700     -1.08654526758562      0.97336247286296
  H   1.86443550938423     -1.24046495555137      2.39635989447940
  H   0.38059885618003     -1.52368782448774      2.98774344769975
  H   2.69803393942999      0.41926388910977      0.98058209383066
  H   2.78700700276504      0.55096890274300     -0.63396942899386
