13
Coordinates from ORCA-job frag_111
  C   1.07022864275301      0.20284707094828     -0.12523045857306
  N   2.47131134119345     -0.06340568053744      0.13016302454388
  C   3.05375541524946     -1.17618805993781     -0.59397713692599
  C   4.54492932895573     -0.93979715783030     -0.84481465887546
  O   5.30069139407925     -1.80750319747002     -1.17893366366205
  O   4.88805541517878      0.33314744669445     -0.68933474476556
  H   0.74125172212100      1.06530321625903      0.47237712665630
  H   0.40106051453856     -0.64977930097733      0.10383929870514
  H   0.93059370980719      0.46462613000628     -1.18550501520623
  H   2.63113948014940     -0.17719541922291      1.12927364751786
  H   2.58397853553379     -1.24342486794010     -1.58955827785591
  H   2.93045962500817     -2.16824965255935     -0.12403024087300
  H   4.05344487543219      0.76841947256722     -0.38936890068592
