23
Coordinates from ORCA-job frag_237
  C   0.62369286142529     -0.07127211215560     -0.06577750569712
  C   2.13320972910283     -0.01473265813714     -0.23499295338586
  C   2.75247507206207     -1.39529800378235     -0.40602168753040
  C   2.68426633928444     -2.24350681257253      0.84958176444611
  O   2.34361229245633     -1.84162403098932      1.92443465810097
  O   3.07032167093350     -3.52112101350535      0.69029414335022
  S   2.64832465391774      0.97085416217945     -1.68738152870604
  C   2.22303705360088      2.63981381886672     -1.12011315927184
  C   2.71645962505172      3.67499089569463     -2.12044018900560
  N   2.38982057793625      5.00570558994332     -1.64933037272635
  H   0.36607806988375     -0.65472668839143      0.83095941916675
  H   0.15145054275757     -0.53201095617045     -0.94773306152389
  H   0.19666555633962      0.93385549675814      0.05986626461848
  H   2.58863221531706      0.44678185796658      0.65673933859399
  H   3.81927681519987     -1.29822003369347     -0.67709146269616
  H   2.26821115508788     -1.93454010178178     -1.24030186681731
  H   3.31456771627604     -3.68743024971582     -0.22797091580723
  H   2.68448432362371      2.83120038003701     -0.13816293450482
  H   1.12953282440645      2.72775463561941     -1.00350894275513
  H   2.31288269691241      3.42253631194755     -3.12483465113504
  H   3.81293005657879      3.59025530480666     -2.20019173248033
  H   1.38778082980768      5.17407548914006     -1.72070411141499
  H   2.84118732203810      5.71165871793571     -2.22561851281841
