20
Coordinates from ORCA-job frag_55
  C   2.32528479950656      1.91177991628873      2.64169367989382
  C   2.79194683565680      0.82202231634010      2.02621202949692
  C   3.10992506500293      0.73110573293115      0.56855879526519
  C   4.59711160206745      0.64620873239094      0.22616380410547
  O   4.99201197366963      0.11544645335773     -0.79326636618578
  N   5.42939308627250      1.23781755007275      1.12210778991550
  C   6.84855032699668      1.32585216035125      0.89181350894887
  C   7.24465639368576      2.52033679912359      0.03282754796593
  S   6.77737852075470      4.13051212319375      0.74379039953430
  H   2.12300405593370      1.92130164993364      3.71589936565715
  H   2.11020434178784      2.83207766166304      2.08769625830988
  H   2.98883481468196     -0.08004237551086      2.61933798448721
  H   2.70954070214054      1.60547453368968      0.02734304274379
  H   2.65225444791043     -0.15824459418776      0.10970521079895
  H   5.02499425419402      1.71092363339213      1.92152663698113
  H   7.16315201767824      0.40302856934297      0.37874100560782
  H   7.36072129516881      1.37454939332784      1.86458389393522
  H   6.81622345171890      2.42024682446742     -0.97528656669402
  H   8.33939464640368      2.55775674111787     -0.07730152033925
  H   5.44821736876880      3.99754617871401      0.54445349957188
