21
Coordinates from ORCA-job frag_345
  C   0.94503555083836     -0.11702947960962      0.01616919572050
  C   2.47068111491076     -0.10080728899731      0.02974486320606
  C   3.01620444013406     -1.52616836205626      0.05193876405722
  C   3.00450687554094      0.69128300648953     -1.16448099374067
  C   2.60039305805812      2.18064726108818     -1.13227895495852
  O   2.13543215831035      2.71647789985277     -0.16419728280239
  O   2.82859574474455      2.83177811338675     -2.26409905807813
  N   4.45540319386354      0.59990795825027     -1.27332518084993
  C   5.09762574781394      0.80235669413073     -2.43603658232589
  O   4.54157328185515      1.15236361154478     -3.46632543296143
  H   0.56149034469533     -0.67168975168647      0.88549793885732
  H   0.56814413599585     -0.62071809487058     -0.88997193851412
  H   0.53049860562084      0.89819101307529      0.05588516077211
  H   2.79532784165171      0.43463149424563      0.94046010384094
  H   2.72706645229742     -2.07173545718881     -0.86180689816760
  H   2.60444779585594     -2.07662149912706      0.91079196037972
  H   4.11312528564768     -1.57374745397295      0.13004446882365
  H   2.59768693336203      0.26080628947613     -2.09824103971931
  H   3.29388647407625      2.25259156092566     -2.91317426062270
  H   4.99513606947938      0.41973581939322     -0.43541201117124
  H   6.19273889524777      0.61744666565010     -2.38518282174558
