18
Coordinates from ORCA-job frag_264
  C   2.99434287531404      1.35864631631901      0.85298780195630
  C   2.59485298977877      0.09573508113086      0.10799325492324
  C   3.15597532070230      0.02896970616530     -1.31086482886373
  N   4.59685906686249      0.09538982196778     -1.38082689727838
  C   5.37187139599794     -0.99556448300735     -0.84673717829687
  C   5.23550797991443      1.16497857716246     -1.93135440419736
  O   6.43391521377200      1.30431677332370     -2.01915681161325
  H   2.56362928803071      1.38231693479009      1.86448142641544
  H   2.64911406115563      2.26137613174281      0.32294936047138
  H   4.08823563735856      1.43488111118586      0.95362798113149
  H   1.49674315341047      0.02198514260866      0.03713749538063
  H   2.91662734947638     -0.79496394096557      0.67482413542988
  H   2.75752260621445      0.87067820402876     -1.90240983700822
  H   2.80988391556620     -0.89717598106261     -1.80627736305947
  H   5.05364736009326     -1.95314061262455     -1.29161749419188
  H   5.27276540439022     -1.07159558987446      0.24927250224630
  H   6.42618226073831     -0.81240099361762     -1.09204668955310
  H   4.50982412122378      1.92546780072686     -2.31088245389240
