18
Coordinates from ORCA-job frag_293
  C   0.97766578214870     -0.14283028823276     -0.04210924871625
  C   2.49132169172071     -0.05294380066521     -0.03576825836082
  N   3.04516612177732     -0.61462242486423      1.17542363694016
  C   4.48845038977083     -0.61810743436777      1.22986854452306
  C   4.97774815158662     -1.08720538350071      2.59132762885796
  N   4.40108668345122     -2.37929962418761      2.93229450408572
  H   0.55235395368728      0.32669039390826     -0.94160852766057
  H   0.55885681225191      0.35512616213748      0.84537211061759
  H   0.64253122846295     -1.19325321660225     -0.02771237647186
  H   2.79743585317754      1.00699167476817     -0.09406857343695
  H   2.89685534875541     -0.53247537246267     -0.95668787053728
  H   2.72628316940222     -1.57841118145679      1.27026178379698
  H   4.85216638933468      0.40963418987984      1.05347708374643
  H   4.94508785278606     -1.25628557291163      0.43977417558383
  H   4.75751442212740     -0.29540635541263      3.33695016524499
  H   6.07465130432660     -1.18929604220530      2.54830602428571
  H   3.46774088362321     -2.24269793048957      3.31703131143635
  H   4.93918396160932     -2.82900779333460      3.66856788606495
