16
-1554.92
C          1.47592        0.43048       -0.77452
C          2.77372       -0.12815       -0.22045
O          3.83811        0.72385       -0.64136
C          5.12120        0.39925       -0.26262
C          6.13912        1.37736       -0.77387
C          5.48340       -0.66057        0.47874
H          0.62626       -0.19223       -0.48046
H          1.51441        0.48276       -1.86775
H          1.30905        1.45041       -0.41234
H          2.92384       -1.14176       -0.60910
H          2.71932       -0.15117        0.87387
H          5.93350        2.37714       -0.37716
H          6.10088        1.42473       -1.86728
H          7.15992        1.10486       -0.48577
H          4.77676       -1.38511        0.86339
H          6.52626       -0.83453        0.72679
