16
-1491.2
C          1.05913       -0.04055        0.20189
O          2.47951        0.01937        0.16875
C          2.94319        1.36295       -0.02175
C          4.47579        1.35933       -0.05895
C          5.09241        0.85922        1.24047
O          4.91546        0.50841       -1.12128
H          0.76211       -1.08047        0.36293
H          0.63986        0.29948       -0.75009
H          0.66863        0.56603        1.02471
H          2.58004        2.00162        0.79094
H          2.55456        1.73088       -0.97826
H          4.84010        2.37114       -0.27089
H          4.82029       -0.18303        1.43789
H          4.77781        1.47240        2.09000
H          6.18503        0.88746        1.17600
H          4.39606       -0.31367       -1.02247
