14
-1492.35
O          0.88827       -0.17949        0.01172
C          2.11512       -0.08684       -0.00305
C          2.80808        1.25788       -0.05595
C          4.33489        1.24120       -0.03433
C          4.96652       -0.11125       -0.01468
C          4.25262       -1.23633        0.00978
N          2.89177       -1.21053        0.01841
H          2.44352        1.84670        0.79407
H          2.46662        1.76250       -0.96755
H          4.68633        1.80141        0.84135
H          4.70900        1.78815       -0.90904
H          6.05186       -0.16212       -0.01750
H          4.71938       -2.21735        0.02778
H          2.37453       -2.08176        0.04487
