15
-1463.46
C          0.94173       -0.12368        0.17394
C          2.44351       -0.07563        0.04374
C          3.13123       -1.23282        0.03970
N          3.06656        1.16658       -0.06970
N          4.48363        1.19878       -0.19735
C          2.42544        2.40993       -0.07648
O          2.99535        3.49439       -0.17998
H          0.61370        0.41151        1.07108
H          0.56710       -1.15011        0.25809
H          0.46346        0.32064       -0.70558
H          2.63280       -2.19265        0.12694
H          4.21159       -1.26537       -0.05777
H          4.84642        1.48069        0.71548
H          4.69722        2.00097       -0.80100
H          1.33240        2.35004        0.02012
