19
-1900.22
C          1.14054        0.26407        0.21041
C          2.59794        0.02506       -0.19058
C          2.64748       -0.66313       -1.53469
C          3.16883       -1.88072       -1.73661
C          3.35647        1.33341       -0.18499
C          4.19429        1.72323        1.00879
C          4.86201        1.34490       -0.28288
H          1.08170        0.74131        1.19670
H          0.58271       -0.67887        0.25950
H          0.62860        0.92199       -0.50185
H          3.03784       -0.63987        0.56523
H          2.24013       -0.11792       -2.38379
H          3.59419       -2.46099       -0.92349
H          3.18392       -2.32157       -2.72863
H          2.82978        2.12188       -0.71395
H          4.27934        1.03163        1.83843
H          4.20875        2.76661        1.30024
H          5.32307        2.13194       -0.86972
H          5.38484        0.39500       -0.33133
