13
-1423.08
C          0.97188        0.01844        0.13683
C          2.44739       -0.09568       -0.10474
C          3.05004       -1.26961       -0.35688
C          3.21371        1.19397       -0.04658
O          2.63566        2.25056        0.18755
C          4.64870        1.24190       -0.26228
C          5.83606        1.29538       -0.43909
H          0.50946        0.67104       -0.61108
H          0.77627        0.43217        1.13165
H          0.47233       -0.95468        0.07988
H          2.47889       -2.19281       -0.39508
H          4.11722       -1.36013       -0.53258
H          6.88836        1.35576       -0.59416
