12
-1224.69
C          0.35137        1.27008        0.02001
O          1.20979        0.33219       -0.62332
C          1.02549       -0.97117       -0.07826
C         -0.42603       -1.29505        0.01933
C         -1.34484       -0.32830       -0.05123
O         -1.04573        1.00348       -0.15855
H          0.55301        2.25539       -0.41125
H          0.58270        1.32668        1.09182
H          1.50642       -1.03425        0.90389
H          1.52363       -1.67984       -0.74691
H         -0.72248       -2.33282        0.12062
H         -2.41330       -0.49621       -0.04008
