13
-1368.53
C          0.89590        0.06325       -0.00804
C          2.39831        0.01229       -0.00504
C          3.00352       -1.36837       -0.00829
C          3.13902        1.13799        0.00000
C          4.54502        1.13799        0.00000
N          5.69603        1.13799        0.00000
H          0.51648        1.09048       -0.00721
H          0.49850       -0.44001        0.87963
H          0.50205       -0.43735       -0.89853
H          2.22822       -2.14119        0.02179
H          3.64314       -1.51586        0.86821
H          3.59274       -1.53093       -0.91692
H          2.65877        2.11074        0.00252
