14
-1384.66
C          2.71251       -1.39958        0.90540
N          3.66450       -0.47151        0.30230
N          3.47933        0.83196        0.61586
C          4.27597        1.63035       -0.02048
C          4.20477        3.11135        0.19814
C          5.49168        3.59048        0.69548
N          6.52268        3.97230        1.07184
H          2.91294       -2.41598        0.55386
H          1.68697       -1.14128        0.62325
H          2.79368       -1.38852        1.99687
H          4.61045       -0.78658        0.53646
H          5.01811        1.26513       -0.75572
H          3.40107        3.34807        0.90225
H          3.97055        3.58077       -0.76254
