19
-1840.96
C          1.53129       -0.41680       -0.11625
O          2.86764        0.06488       -0.06094
C          2.91204        1.49392       -0.06744
C          4.37584        1.93733       -0.04886
C          4.55321        3.43858       -0.00033
C          4.10005        4.21649       -1.20380
C          5.12527        4.04626        1.05313
H          1.55763       -1.50919       -0.08922
H          1.05048       -0.10212       -1.04716
H          0.95767       -0.05888        0.74445
H          2.38673        1.87701        0.81526
H          2.40976        1.86332       -0.96857
H          4.88912        1.53957       -0.93372
H          4.87556        1.46003        0.80446
H          4.56493        3.81832       -2.11124
H          4.36872        5.27573       -1.13231
H          3.01307        4.15841       -1.31310
H          5.47038        3.48371        1.91567
H          5.26910        5.12223        1.08112
