13
-1413.17
C          1.05158       -0.02579        0.09370
C          2.38221        0.05596        0.00490
C          3.23987        1.26202        0.02701
C          4.40631        0.76789       -0.79215
O          4.49167       -0.64018       -0.55695
C          3.26341       -1.11549       -0.20505
O          2.95797       -2.28548       -0.07350
H          0.54682       -0.98817        0.03878
H          0.43634        0.85818        0.22176
H          3.55197        1.47214        1.05713
H          2.77873        2.15669       -0.39868
H          4.25935        0.93379       -1.86543
H          5.34303        1.24671       -0.49130
