12
-1278.92
O          1.45449       -0.30078       -0.90272
C          2.56509       -0.05401       -0.04327
C          2.96023        1.37642       -0.02472
C          2.27125        2.48144       -0.47078
O          3.03420        3.58498       -0.23826
C          4.15739        3.08439        0.34305
N          4.17226        1.77986        0.50143
H          1.31464       -1.26243       -0.89566
H          3.40523       -0.66504       -0.38852
H          2.29265       -0.37340        0.96727
H          1.31114        2.63926       -0.94011
H          4.92004        3.79959        0.61646
