14
-1313.49
C          1.06810       -0.00381        0.06790
N          2.52288        0.03037       -0.02045
C          3.08221        1.02995        0.92638
C          4.17399       -0.00465        1.26149
C          3.12452       -1.04183        0.81454
H          0.68110       -0.85504       -0.50295
H          0.64607        0.90425       -0.37627
H          0.68860       -0.08503        1.09394
H          2.44686        1.29024        1.78287
H          3.44137        1.95163        0.45945
H          5.05633        0.04816        0.61307
H          4.49131       -0.05430        2.30545
H          3.52036       -1.89253        0.25252
H          2.50355       -1.41820        1.63751
