17
-1560.03
C          0.96795       -0.23775       -0.27215
N          2.36792       -0.06735        0.09445
C          2.79004        1.32313       -0.11077
C          4.23809        1.43862        0.29510
N          5.16117        1.66200       -0.58417
O          6.40057        1.71510        0.07261
C          7.41184        1.96995       -0.89580
H          0.67294       -1.27834       -0.10838
H          0.79741       -0.00079       -1.32708
H          0.31836        0.39032        0.34592
H          2.94133       -0.66945       -0.50009
H          2.21254        2.00137        0.52693
H          2.67730        1.62135       -1.15878
H          4.46941        1.31119        1.36833
H          8.37721        2.00973       -0.38513
H          7.23220        2.93149       -1.38676
H          7.43749        1.16599       -1.63781
