14
-1517.56
C          2.05884       -1.22977       -0.49097
C          3.01983       -0.47973        0.05995
C          3.30548        0.86771       -0.36997
C          4.26845        1.61876        0.18713
C          4.59286        3.02302       -0.24190
C          4.42578        3.96270        0.87727
N          4.30540        4.71356        1.75467
H          1.87652       -2.23900       -0.13432
H          1.43137       -0.86823       -1.29939
H          3.61465       -0.89710        0.87019
H          2.69884        1.27020       -1.17953
H          4.87479        1.21166        0.99522
H          3.96077        3.33464       -1.08128
H          5.62978        3.05083       -0.59534
