18
-1721.11
C          0.96633       -0.00612        0.05413
C          2.48204       -0.01278        0.01604
C          3.19798        1.03915        0.90172
C          4.21409       -0.04257        1.31758
N          5.36873        0.00278        0.40940
C          3.19161       -1.11882        0.85125
O          3.70319       -2.24803        0.11298
H          0.56455       -0.86785       -0.48884
H          0.57384        0.90098       -0.41692
H          0.58660       -0.04580        1.08057
H          2.83212        0.01576       -1.02548
H          2.59069        1.39327        1.74460
H          3.58543        1.91705        0.37520
H          4.47855       -0.06158        2.37777
H          5.17493        0.18652       -0.57197
H          5.97496       -0.81454        0.46862
H          2.57620       -1.47718        1.68690
H          4.29343       -1.85696       -0.55123
