12
-1243.03
O          0.92614       -0.03815       -0.06807
N          2.31026       -0.01795       -0.02370
C          3.08953        1.10281       -0.01333
C          4.40617        0.68692        0.01345
C          4.38262       -0.72141        0.01763
O          5.44681       -1.53400        0.03435
C          3.07842       -1.14332       -0.00228
H          0.72639        0.89554        0.10095
H          2.66333        2.09531       -0.03033
H          5.28059        1.32377        0.02393
H          5.16024       -2.46283        0.02432
H          2.62212       -2.12245       -0.00866
