21
-2045.86
C          2.79480       -1.33118        0.02898
C          2.29286       -0.16704        0.87145
C          2.90169        1.19160        0.47163
C          2.22526        2.31539        1.26545
C          4.43920        1.26674        0.59825
C          4.97734        1.02985        1.98280
C          5.64878        1.94525        2.69399
H          2.25744       -2.24654        0.29738
H          3.86061       -1.51580        0.18926
H          2.63015       -1.14344       -1.03663
H          2.48031       -0.37916        1.93046
H          1.20245       -0.11373        0.75797
H          2.66263        1.36139       -0.58742
H          2.36488        2.19156        2.34432
H          1.14762        2.33098        1.06867
H          2.62765        3.29258        0.97779
H          4.77032        2.24811        0.23268
H          4.90063        0.53486       -0.07532
H          4.82236        0.04346        2.41425
H          5.84057        2.94124        2.30715
H          6.02209        1.71249        3.68636
