11
-1260.65
C          1.00000        0.00000        0.00000
C          2.44400        0.00000        0.00000
C          3.63416        0.00000        0.00000
C          5.16565        0.00965       -0.00000
C          6.36585        0.02032       -0.00000
C          7.80437        0.03011       -0.00000
O          8.42659        1.08154       -0.00000
H          0.60590        1.02085        0.01168
H          0.60590       -0.52054        0.87824
H          0.60590       -0.50031       -0.88992
H          8.28904       -0.95903       -0.00000
