16
-1540.48
C          1.25303       -0.22017       -0.28409
O          2.66473       -0.06418       -0.25489
C          3.03746        1.27210        0.07104
C          4.52994        1.34786        0.09607
C          5.30134        1.79887       -1.11789
C          5.22591        2.68497        0.09523
H          1.02642       -1.26962       -0.49009
H          0.81821        0.39380       -1.07846
H          0.81465        0.04768        0.68216
H          2.64559        1.52973        1.06156
H          2.61529        1.96377       -0.66772
H          4.95976        0.56221        0.70765
H          4.74992        2.09620       -2.00274
H          6.24121        1.30160       -1.33027
H          6.11756        2.78949        0.70307
H          4.62621        3.58514        0.02943
