18
-1758.24
C          0.93175       -0.36228       -0.13661
C          2.45346       -0.29892       -0.05565
C          3.08897       -1.30879       -1.00863
N          2.91226        1.05006       -0.35439
C          4.12158        1.52317        0.10459
C          4.45760        2.90002       -0.39944
O          4.87449        0.89022        0.83643
H          0.47714        0.35417        0.55636
H          0.56717       -1.36185        0.12141
H          0.57576       -0.11765       -1.14368
H          2.76192       -0.54378        0.96781
H          2.82774       -1.08978       -2.04997
H          2.75449       -2.32576       -0.77875
H          4.18138       -1.28877       -0.93275
H          2.45423        1.55672       -1.10080
H          4.89552        2.82362       -1.39789
H          5.17514        3.37095        0.27844
H          3.56159        3.52610       -0.43732
