13
-1317.4
N          1.03481       -0.00149        0.25962
C          2.47000        0.00000        0.00000
C          2.72737       -0.74458       -1.28393
C          3.33827       -0.31348       -2.39883
C          2.95202        1.36117        0.00000
C          3.34930        2.48307        0.00000
H          0.86000        0.53810        1.10475
H          0.73681       -0.95153        0.46295
H          2.96515       -0.55102        0.80890
H          2.37225       -1.77402       -1.28865
H          3.72443        0.69595       -2.49576
H          3.45243       -0.97046       -3.25540
H          3.69833        3.48948       -0.00692
