10
-1169.19
N          0.95137       -0.02678       -0.00641
C          2.11359       -0.03117       -0.00228
C          3.54437        0.01063        0.00270
C          4.34681        1.13037        0.00292
N          5.62746        0.64513        0.00862
C          5.55205       -0.72011        0.01156
N          4.30505       -1.13523        0.00811
H          4.12743        2.18821       -0.00036
H          6.47975        1.19061        0.01036
H          6.43139       -1.35160        0.01618
