19
-1867.81
C          2.32556       -0.75590        1.29674
C          2.48441       -0.00902       -0.00641
O          2.05707       -0.50634       -1.05090
C          3.21472        1.34774        0.00869
C          2.93026        2.09614       -1.30502
C          2.73312        2.21595        1.17826
C          4.72278        1.09416        0.12476
H          3.28625       -0.83937        1.80875
H          1.96034       -1.76714        1.09287
H          1.59758       -0.24623        1.93187
H          3.28717        1.53056       -2.17356
H          3.42449        3.07403       -1.32156
H          1.85498        2.26049       -1.44070
H          2.99761        1.77597        2.14611
H          1.64383        2.33523        1.15816
H          3.18265        3.21479        1.14232
H          4.97916        0.60927        1.07283
H          5.28801        2.03124        0.06942
H          5.07585        0.43908       -0.68003
