15
-1557.98
C          0.98598       -0.01684        0.01764
C          2.52000        0.00000        0.00000
C          3.05825       -0.74229        1.23068
C          2.96764       -0.77338       -1.23871
O          3.49396       -0.28985       -2.23730
C          3.00202        1.36117        0.00000
C          3.39930        2.48307        0.00000
H          0.57362        0.48539       -0.86573
H          0.58946        0.49387        0.90276
H          0.59747       -1.04154        0.01794
H          2.75113       -0.25128        2.16162
H          4.15450       -0.78012        1.22329
H          2.69925       -1.77757        1.26377
H          2.74701       -1.85580       -1.21548
H          3.75986        3.48593       -0.01372
