15
-1507.42
N          2.65160        2.01387        2.27975
C          2.22391        2.03760        1.06836
N          2.93479        1.68208       -0.03450
C          4.37400        1.45679        0.00845
C          5.16223        2.76890        0.03387
C          5.00783        3.53292       -1.21927
C          4.88482        4.16234       -2.23493
H          1.90402        2.32351        2.91012
H          1.19584        2.36031        0.83111
H          2.59321        2.02650       -0.92592
H          4.65522        0.86598       -0.87150
H          4.63297        0.85237        0.88587
H          6.22417        2.53901        0.17846
H          4.85071        3.38886        0.88173
H          4.78073        4.72852       -3.13235
