16
-1549.18
C          2.69210       -1.46700       -0.86915
C          1.97358       -0.23675       -0.33944
C          2.93632        0.85051        0.05894
C          3.71450        0.66123        1.32330
C          3.44031        1.81943       -0.98777
O          2.38874        2.17134       -0.07673
H          1.96686       -2.22538       -1.18057
H          3.33768       -1.91066       -0.10463
H          3.31752       -1.21639       -1.73249
H          1.35660       -0.51463        0.52237
H          1.28564        0.12820       -1.11201
H          4.27255        1.56383        1.59561
H          4.43582       -0.15434        1.21237
H          3.04553        0.41925        2.15546
H          3.16991        1.66017       -2.02424
H          4.40413        2.29082       -0.84498
