16
-1510.55
C          2.78102       -1.05470       -0.66445
N          2.24669        0.18674       -0.11227
C          3.31352        1.19452        0.09519
C          3.56367        2.21939       -0.98567
O          2.67518        2.14598       -2.11845
C          2.93295        2.63715        0.31422
O          3.77660        3.37472        1.21475
H          1.96501       -1.76697       -0.81850
H          3.50854       -1.51132        0.01416
H          3.25900       -0.88057       -1.63362
H          1.80436       -0.02128        0.78542
H          4.17820        0.84650        0.65686
H          4.58982        2.51613       -1.17014
H          2.03476        1.42318       -1.96023
H          1.87774        2.88967        0.30022
H          3.75870        4.32303        0.99583
