16
-1509.49
O          1.85447       -0.36107       -1.28922
C          2.28960        0.01114        0.01891
C          3.12362        1.28669       -0.05859
O          4.37733        1.01882       -0.75032
C          2.34140        2.54806       -0.50960
N          2.98792        3.31409        0.58238
C          3.26766        2.04347        1.28824
H          1.65317       -1.31186       -1.26163
H          2.88260       -0.80825        0.43996
H          1.39756        0.14433        0.63973
H          4.72433        1.89675       -0.97876
H          1.25163        2.48433       -0.40753
H          2.57278        2.91642       -1.51379
H          3.82858        3.81273        0.29132
H          4.25742        1.99775        1.75313
H          2.51822        1.79578        2.04907
