17
-1627.89
C          1.49374       -0.63499        0.19180
N          2.78273       -0.02782        0.37253
C          3.78703       -0.16185       -0.56652
O          3.71447       -0.91015       -1.53605
C          5.03320        0.68246       -0.22266
C          5.90434        0.92066       -1.44926
N          4.61457        1.97433        0.38004
H          0.94099       -0.56825        1.13132
H          1.61168       -1.68181       -0.10105
H          0.95754       -0.09746       -0.59483
H          2.89025        0.77877        0.98496
H          5.60321        0.12071        0.52676
H          5.35391        1.45456       -2.23228
H          6.24230       -0.02967       -1.87674
H          6.79330        1.50725       -1.19482
H          4.15808        2.52893       -0.34653
H          5.45556        2.49791        0.62719
