14
-1444.69
C          2.43737       -0.92417       -0.85442
O          2.01120        0.35189       -0.39319
C          3.11198        1.21090       -0.03154
C          3.52387        2.21186       -1.07232
C          2.75385        2.66717        0.14229
C          3.42719        3.42679        1.15438
N          3.98349        4.03796        1.96892
H          1.55400       -1.50408       -1.13406
H          2.97069       -1.45411       -0.05961
H          3.08121       -0.81546       -1.73236
H          3.88284        0.80593        0.61915
H          3.00368        2.20303       -2.02313
H          4.57726        2.45657       -1.14752
H          1.71200        2.93285       -0.01105
