17
-1654.61
C          2.52955       -0.76404        1.01091
C          2.50162        0.25261       -0.12310
N          2.73058        1.62470        0.33160
C          4.01902        1.84291        0.99216
C          4.14475        3.35162        0.90812
C          3.19944        3.61328       -0.21463
N          2.43186        2.62652       -0.53829
H          2.25718       -1.75463        0.63171
H          1.81505       -0.49801        1.79756
H          3.52476       -0.84453        1.45981
H          1.51334        0.19821       -0.59582
H          3.23528       -0.02378       -0.88945
H          4.83970        1.37058        0.43868
H          4.03354        1.49401        2.02889
H          5.15291        3.68521        0.65334
H          3.78629        3.86720        1.80343
H          3.16350        4.59719       -0.70242
