15
-1506.3
C          1.15143       -0.33626        0.03655
C          2.66476       -0.19038        0.04845
C          3.08766        1.27431       -0.06362
C          4.60928        1.41680       -0.04852
C          5.00923        2.82649       -0.15392
N          5.32703        3.93900       -0.23688
H          0.87169       -1.39087        0.12289
H          0.72718        0.05263       -0.89463
H          0.69840        0.20495        0.87333
H          3.08786       -0.76500       -0.78373
H          3.06003       -0.62209        0.97531
H          2.65306        1.84738        0.76562
H          2.68362        1.70448       -0.98915
H          5.04436        0.85081       -0.88029
H          5.01372        0.99117        0.87710
