13
-1384.5
C          0.97137        0.09328       -0.00656
C          2.45895        0.04010       -0.00075
N          3.24319        1.08766        0.00475
N          4.61686        0.61984        0.00843
C          4.59626       -0.67926        0.00473
C          3.23532       -1.19722       -0.00193
C          2.84706       -2.47174       -0.00736
H          0.63163        1.13238        0.00501
H          0.58033       -0.41771        0.87750
H          0.58861       -0.39534       -0.90673
H          5.47048       -1.34462        0.00588
H          1.79664       -2.74286       -0.01219
H          3.57082       -3.28012       -0.00744
