15
-1408.96
C          1.19389       -0.19561       -0.30753
N          2.64063       -0.10185       -0.15959
C          3.04911        1.28674        0.05286
C          4.52883        1.31078        0.25896
C          5.48490        1.46329       -0.89528
O          5.15132        2.56823       -0.04255
H          0.90948       -1.24267       -0.45099
H          0.84216        0.37096       -1.17601
H          0.67866        0.16538        0.58860
H          3.08273       -0.45342       -1.00808
H          2.56560        1.69607        0.94699
H          2.76277        1.90771       -0.80480
H          4.85173        0.78950        1.15039
H          5.09339        1.47520       -1.90445
H          6.47638        1.03911       -0.79747
