19
-1923.88
C          2.45615       -0.45873       -1.63704
C          2.46064        0.03894       -0.19780
C          3.32128        1.29114       -0.00171
C          3.39651        1.69944        1.47953
C          3.44841        3.22687        1.49769
C          2.84855        3.58922        0.18131
C          2.77329        2.53634       -0.63790
H          1.88032       -1.38686       -1.71145
H          3.47381       -0.66374       -1.98412
H          2.00080        0.27074       -2.31326
H          2.84329       -0.76350        0.44498
H          1.42637        0.23042        0.11478
H          4.33173        1.11080       -0.39001
H          4.26691        1.25944        1.97840
H          2.50738        1.35949        2.02754
H          4.47704        3.59621        1.56271
H          2.87131        3.63093        2.33452
H          2.54999        4.59487       -0.08187
H          2.41237        2.58579       -1.65680
