16
-1656.46
N          0.91147       -0.06199        0.22087
C          2.37015       -0.00548        0.07978
C          2.80061        1.32453       -0.60536
C          3.89351        1.19619       -1.63143
C          4.32125        0.01120       -2.08575
C          3.75230       -1.22490       -1.60986
C          2.85162       -1.24824       -0.61656
H          0.58512        0.78031        0.69081
H          0.66278       -0.84212        0.82524
H          2.79585       -0.01420        1.09212
H          3.12797        2.02313        0.17326
H          1.94447        1.80058       -1.09767
H          4.32117        2.11255       -2.02757
H          5.09562       -0.04843       -2.84327
H          4.08184       -2.14498       -2.07672
H          2.46929       -2.20414       -0.27390
