17
-1614.97
C          0.89985       -0.01896        0.10684
C          2.41721       -0.00540       -0.03515
C          2.84765        0.02067       -1.50254
C          3.13710        1.02902        0.86618
N          4.12285       -0.01059        1.23357
C          3.15756       -1.05624        0.83003
H          0.59223       -0.03897        1.15798
H          0.46972       -0.89982       -0.38129
H          0.45776        0.87254       -0.35061
H          3.93782        0.03400       -1.60989
H          2.45434        0.90913       -2.00657
H          2.47430       -0.86273       -2.03152
H          2.55435        1.38393        1.72526
H          3.56122        1.90088        0.35923
H          4.95762        0.00798        0.64692
H          3.59957       -1.90122        0.29312
H          2.58195       -1.45247        1.67532
