18
-1785.84
C          0.78072        0.07222        0.22221
C          2.11946        0.09561        0.26789
C          3.01003        1.30439        0.14450
C          2.34962        2.67895        0.09382
C          3.49881        3.59733        0.46201
N          4.16586        2.89200        1.55399
C          4.01152        1.45256        1.30217
H          0.24229       -0.86637        0.31713
H          0.18535        0.96907        0.08957
H          2.63763       -0.85518        0.39150
H          3.58822        1.18015       -0.78289
H          1.54498        2.77218        0.83401
H          1.94006        2.90766       -0.89514
H          4.18372        3.71950       -0.38536
H          3.15223        4.58590        0.77582
H          5.14886        3.15117        1.60950
H          4.97401        1.00249        1.03252
H          3.66036        0.96799        2.22001
