14
-1471.33
C          0.89379        0.77518       -0.03375
C          2.19505        0.48126       -0.08426
N          3.16441        1.44104        0.04867
C          4.51548        1.16033       -0.00033
O          5.00108        0.04582       -0.16459
C          5.35764        2.37561        0.17023
C          6.69368        2.28610        0.14904
H          0.15415       -0.01218       -0.14309
H          0.52797        1.78477        0.11451
H          2.53782       -0.54183       -0.23439
H          2.86549        2.39704        0.18890
H          4.87246        3.33234        0.31153
H          7.19604        1.33218        0.00801
H          7.31476        3.16643        0.27247
