18
-1781.3
C          1.20315        0.15211        0.13715
C          2.62966       -0.29783       -0.08174
C          2.77154       -1.54957       -0.90974
N          2.16079       -2.68952       -0.23667
C          3.64107        0.43492        0.42634
C          5.05628        0.17408        0.30538
C          5.98730        0.96881        0.84991
H          1.14537        1.10666        0.67159
H          0.64852       -0.58536        0.72588
H          0.69627        0.28506       -0.82437
H          3.81237       -1.79418       -1.13268
H          2.27849       -1.39739       -1.87656
H          2.64336       -2.83617        0.64930
H          2.32534       -3.52726       -0.79060
H          3.38753        1.32781        0.99846
H          5.39084       -0.69828       -0.24671
H          5.73044        1.85775        1.41677
H          7.04201        0.73943        0.73601
