12
-1357.2
C          1.06771       -0.04755       -0.15512
C          2.37700        0.01960        0.06259
N          3.19978       -1.04708        0.23218
C          4.50134       -0.64846        0.43878
O          5.48044       -1.34321        0.62359
C          4.48182        0.82916        0.39178
C          3.20785        1.18329        0.16754
H          0.55055       -0.99883       -0.21371
H          0.47172        0.85002       -0.28164
H          2.92707       -2.01752        0.21515
H          5.35219        1.44489        0.51960
H          2.84963        2.19733        0.07745
