17
-1563.53
C          0.98472       -0.01115       -0.04569
C          2.50825        0.03811       -0.03414
C          3.09269       -0.76919       -1.18768
S          3.12784        1.73036       -0.01390
C          2.57440        2.46662       -1.53618
O          2.46679        2.43457        1.06959
O          4.57699        1.67547       -0.06427
H          0.56252        0.55769        0.78877
H          0.63261       -1.04429        0.04449
H          0.57351        0.40058       -0.97244
H          2.86238       -0.39744        0.90850
H          2.75985       -0.38793       -2.15797
H          2.78376       -1.81773       -1.11863
H          4.18699       -0.74383       -1.17632
H          2.99671        1.91868       -2.37902
H          2.93286        3.49860       -1.55626
H          1.48450        2.45967       -1.56758
