16
-1604.22
C          0.91665        0.01187       -0.16630
C          2.38947       -0.12597        0.01517
C          3.22162       -0.81924       -1.02711
C          3.33568        0.67170       -0.84471
N          4.52019        1.23804       -0.29669
C          4.53015        2.30631        0.55434
O          5.55669        2.80961        0.99201
H          0.54814        0.87383        0.39827
H          0.40675       -0.88240        0.20461
H          0.64152        0.14989       -1.21688
H          2.65152       -0.28802        1.05500
H          2.73517       -1.18282       -1.92519
H          4.03406       -1.44954       -0.68267
H          2.90581        1.28570       -1.63332
H          5.43045        0.88527       -0.56896
H          3.52343        2.67434        0.81210
