14
-1358.95
O          2.35679       -0.36271        0.39477
N          3.30038        0.66112        0.23889
C          4.48176        0.14856        0.28066
O          5.62224        0.86397        0.16038
C          5.45817        2.27715       -0.00560
C          6.82789        2.87554       -0.09998
C          7.30402        3.82484        0.71804
H          1.51092        0.12191        0.35180
H          4.70584       -0.92192        0.41564
H          4.90278        2.69145        0.84438
H          4.91492        2.47959       -0.93631
H          7.46350        2.49653       -0.89635
H          6.70870        4.23074        1.52987
H          8.31093        4.21049        0.59218
