14
-1450.84
C          1.35136       -0.34458       -0.08620
O          2.72797        0.00268       -0.15841
C          2.92653        1.40023        0.02631
C          4.38641        1.73465       -0.04053
C          5.38463        0.85668       -0.22959
C          6.74695        1.25649       -0.28132
N          7.85724        1.58863       -0.32259
H          1.25947       -1.42178       -0.24867
H          0.78272        0.17583       -0.86297
H          0.94773       -0.10446        0.90208
H          2.53447        1.70267        1.00379
H          2.39661        1.95297       -0.75766
H          4.62156        2.79114        0.07838
H          5.18121       -0.20236       -0.35072
