19
-1783.46
C          2.30865        0.23071       -0.70275
N          3.48210        1.01582       -1.04791
C          4.53514        0.85728       -0.04572
C          5.71688        1.74031       -0.38201
C          6.79993        1.24148       -1.00963
C          5.65538        3.17521        0.06814
N          4.56698        3.89947       -0.57564
H          1.54940        0.35260       -1.47971
H          1.87405        0.55271        0.24796
H          2.54949       -0.83511       -0.64336
H          3.23792        2.01119       -1.06156
H          4.85235       -0.19232       -0.00641
H          4.16892        1.11435        0.95694
H          6.83247        0.20255       -1.32531
H          7.65983        1.86040       -1.24347
H          6.59787        3.69204       -0.14774
H          5.52150        3.20862        1.15571
H          4.72966        3.87708       -1.58295
H          4.62371        4.88001       -0.30621
