7
-857.15
O          0.94286       -0.04562        0.00000
C          2.16465       -0.05037        0.00000
C          2.90048        1.18552        0.00000
C          3.50487        2.22294        0.00000
C          4.27416        3.54836        0.00000
N          4.86765        4.54583        0.00000
H          2.76794       -0.97170        0.00000
