12
-1287.53
O          1.00071        0.00494       -0.01020
C          2.42000        0.00000        0.00000
C          2.90202        1.36117        0.00000
C          3.29930        2.48307        0.00000
C          3.78132        3.84424        0.00000
C          3.19840        5.16536        0.00000
N          2.73375        6.21841        0.00000
H          0.71765       -0.92407       -0.00960
H          2.77026       -0.54133       -0.88378
H          2.75765       -0.53700        0.89185
H          4.47161        3.87105       -0.85951
H          4.47162        3.87105        0.85951
