17
-1724.24
C          0.27381       -0.05057        1.05869
C          1.67426       -0.58631        0.90830
O          1.93824       -1.75511        1.18571
C          2.71510        0.39683        0.40743
C          4.09970       -0.23787        0.29776
C          5.11415        0.75233       -0.20173
C          6.18368        1.14601        0.50049
H          0.26321        0.73927        1.81349
H         -0.39650       -0.85422        1.37562
H         -0.07475        0.33925        0.09902
H          2.74145        1.24320        1.10324
H          2.38795        0.76267       -0.57269
H          4.06795       -1.08656       -0.39650
H          4.40020       -0.64407        1.27192
H          4.96509        1.14853       -1.20416
H          6.38275        0.76745        1.49794
H          6.89061        1.85646        0.08377
