19
-1776.58
N          2.29429       -0.03300        3.47534
C          3.21328       -0.18825        2.34497
C          3.81023        1.16330        1.90647
N          4.69198        1.00152        0.74176
C          5.35536        2.29504        0.41871
C          6.65041        1.49598        0.18742
C          6.02155        0.47076        1.14904
H          1.91258       -0.94724        3.71685
H          1.49838        0.53442        3.18417
H          2.67481       -0.65105        1.50955
H          4.01346       -0.87496        2.64321
H          4.32202        1.63358        2.75661
H          2.98710        1.83082        1.62372
H          5.42712        3.01762        1.24194
H          4.95809        2.80396       -0.46426
H          6.77571        1.13074       -0.83857
H          7.57705        1.96739        0.52229
H          6.19334       -0.57743        0.88714
H          6.30223        0.62471        2.19862
