11
-1070.7
C          0.96919       -0.02468       -0.00990
N          2.42441        0.01439        0.01349
C          2.91578        1.40087        0.02976
C          4.39315        1.47472        0.00552
N          5.55084        1.54573       -0.03736
H          0.63251       -1.06599       -0.01178
H          0.56843        0.46019       -0.90600
H          0.54583        0.45647        0.87768
H          2.79042       -0.46142       -0.81218
H          2.55465        1.90738        0.93241
H          2.52413        1.94605       -0.83733
