13
-1453.51
C          0.92285        0.00224       -0.12927
C          2.25363        0.00739        0.03355
C          2.98999        1.25958        0.12326
C          4.31998        1.20027        0.28847
O          5.03618        0.01792        0.37862
C          4.32910       -1.16977        0.29022
C          2.99923       -1.23920        0.12505
H          0.35922       -0.92305       -0.19777
H          0.35245        0.92336       -0.19910
H          2.47303        2.20915        0.05782
H          4.97137        2.05859        0.36838
H          4.98657       -2.02291        0.37131
H          2.48944       -2.19281        0.06092
