14
-1408.84
N          1.60465        0.51968       -1.16465
C          2.93289        0.28709       -0.94668
O          3.75471        0.46219       -1.83770
C          3.26472       -0.18942        0.45177
C          4.72138       -0.46564        0.63992
C          5.64307        0.54326        1.27172
O          5.12432       -0.57153        2.01271
H          0.89313        0.37914       -0.46159
H          1.32656        0.83381       -2.08575
H          2.70232       -1.11059        0.63985
H          2.91690        0.56964        1.16218
H          5.12629       -1.18187       -0.06382
H          5.26211        1.52795        1.51134
H          6.69112        0.51873        0.99855
