12
-1266.02
C          0.96135       -0.01335       -0.00767
C          2.43753        0.04441       -0.00093
C          3.32371        1.09940        0.00250
N          4.61909        0.65108        0.00875
C          4.53261       -0.65860        0.00921
N          3.23202       -1.07461        0.00327
H          0.52907        0.99227        0.00196
H          0.59215       -0.54896        0.87270
H          0.59982       -0.52889       -0.90306
H          3.09826        2.15844        0.00069
H          5.36503       -1.34931        0.01363
H          2.91904       -2.03557        0.00230
