17
-1559.47
C          2.17185        2.45733       -2.24394
O          3.43290        2.20802       -1.63611
C          3.28818        1.47782       -0.41027
C          4.67003        1.25282        0.23574
C          5.59938        0.47118       -0.69347
N          5.28632        2.54183        0.58196
H          2.34092        3.01258       -3.17020
H          1.54116        3.06019       -1.58469
H          1.67209        1.51487       -2.48750
H          2.81516        0.51099       -0.62126
H          2.64168        2.04001        0.27485
H          4.53424        0.68036        1.15958
H          5.81687        1.02257       -1.61555
H          5.14814       -0.48765       -0.97315
H          6.55435        0.25556       -0.20021
H          5.22574        3.14030       -0.24635
H          6.27995        2.41338        0.76242
