10
-1074.92
O          0.85544        0.10639       -0.00601
C          2.18404        0.07341        0.00031
C          3.07248        1.12888        0.00475
C          4.43190        0.69745        0.01113
C          4.53361       -0.67491        0.01136
S          2.99893       -1.42843        0.00391
H          0.58902        1.04054       -0.00708
H          2.76956        2.16776        0.00350
H          5.28934        1.35940        0.01533
H          5.43311       -1.27517        0.01552
