13
-1344.27
N          1.09006       -0.26101        0.04929
C          2.45768       -0.29180        0.10722
N          3.12231       -1.39723        0.02050
C          3.20648        1.03211        0.31400
O          2.58097        1.97498        0.78374
C          4.63179        1.09046       -0.09606
C          5.33877        2.21934        0.04038
H          0.70509        0.61521        0.40563
H          0.61510       -1.06988        0.42854
H          2.46335       -2.16485       -0.13560
H          5.07019        0.18877       -0.50690
H          4.89733        3.12175        0.45434
H          6.37988        2.26045       -0.26071
