18
-1696.54
C          3.93151       -1.00564       -0.77672
C          3.02849       -0.32547        0.24268
C          2.86391        1.16768       -0.02171
C          4.13954        1.91255        0.25893
N          4.76574        2.52859       -0.68875
O          5.91304        3.13024       -0.15096
C          6.60365        3.79571       -1.20182
H          3.96726       -2.08307       -0.58788
H          4.95445       -0.62164       -0.72100
H          3.56025       -0.85199       -1.79449
H          3.43263       -0.49170        1.24866
H          2.04098       -0.80093        0.20867
H          2.10065        1.57238        0.65184
H          2.53992        1.35020       -1.05169
H          4.51156        1.90398        1.29896
H          7.49020        4.27805       -0.78199
H          5.96429        4.56222       -1.65087
H          6.92028        3.07507       -1.96203
