15
-1447.01
N          1.16607        0.08952        0.42647
C          2.40962        0.03970        0.08146
C          3.05645       -1.32231       -0.07157
C          4.08712       -1.29868       -1.18875
C          4.90458       -0.01971       -1.10464
O          4.01701        1.09805       -1.23153
N          3.20444        1.15298       -0.08219
H          0.85831        1.05918        0.52146
H          2.29650       -2.08715       -0.26171
H          3.54152       -1.56149        0.88256
H          4.73308       -2.18076       -1.13510
H          3.56054       -1.32416       -2.15101
H          5.47451        0.05093       -0.17015
H          5.61485        0.02657       -1.93580
H          2.70099        2.03490       -0.04635
