19
-1919.
C          1.86893        0.13665       -0.71570
C          1.82011       -0.13199        0.75944
C          0.53324        0.00642       -0.02155
C         -0.34365        1.21735        0.19533
C         -1.75041        0.72695       -0.15214
C         -1.71717       -0.75373        0.20743
C         -0.33568       -1.20156       -0.26876
H          2.19366        1.11954       -1.03968
H          2.19591       -0.66790       -1.36488
H          2.11493       -1.11642        1.10562
H          2.10851        0.67027        1.43014
H         -0.30365        1.53023        1.24506
H         -0.05767        2.06708       -0.43289
H         -2.52657        1.27547        0.38859
H         -1.93336        0.84432       -1.22712
H         -2.52469       -1.32185       -0.26305
H         -1.79728       -0.87518        1.29460
H         -0.36323       -1.42794       -1.34087
H          0.00078       -2.09381        0.26770
