18
-1712.3
O          3.99920        1.50653        2.39521
C          3.37473        2.65035        1.83114
C          3.08175        2.41357        0.35554
C          4.32043        2.09884       -0.48828
C          5.33774        3.19970       -0.47805
C          5.96417        3.66596       -1.76926
N          5.00469        4.50155       -1.05241
H          4.09195        1.67582        3.34863
H          4.02699        3.51626        1.97714
H          2.43840        2.83247        2.36837
H          2.56566        3.29121       -0.05206
H          2.39422        1.56326        0.26477
H          3.99151        1.89374       -1.51433
H          4.79469        1.17693       -0.13070
H          5.94881        3.20115        0.41788
H          5.61483        3.24866       -2.70531
H          6.99633        3.99095       -1.75876
H          5.48350        5.25302       -0.55213
