18
-1723.15
C          1.19760       -0.55193        0.41038
C          2.38570        0.11833       -0.28772
N          2.61532       -0.54718       -1.57721
C          2.27672        1.61613       -0.51540
C          1.19306        2.35978       -0.21943
C          3.51594        2.28386       -1.07118
O          3.74743        1.86099       -2.40788
H          1.02098       -0.10946        1.39785
H          1.38859       -1.62035        0.56399
H          0.27458       -0.46240       -0.17482
H          3.26900       -0.05384        0.34104
H          1.74295       -0.51950       -2.11006
H          2.78899       -1.53850       -1.40723
H          0.28466        1.93711        0.19490
H          1.18208        3.43172       -0.39853
H          4.39313        2.02907       -0.46578
H          3.43003        3.37557       -1.07896
H          3.53272        0.90315       -2.41395
