20
-1935.54
C          1.02942       -0.03094        0.00313
C          2.54662        0.00650        0.05531
C          3.08703        1.14705        0.90119
C          4.49624        0.67620        1.19884
C          4.33163       -0.82955        1.38710
C          5.53469       -1.61986        0.89183
N          3.08708       -1.20056        0.69254
H          0.67968       -0.87356       -0.60349
H          0.63730        0.88977       -0.44052
H          0.59307       -0.13340        1.00360
H          2.94756        0.08439       -0.96356
H          2.52102        1.26159        1.83396
H          3.07626        2.10426        0.37110
H          5.14878        0.90309        0.34651
H          4.91085        1.16369        2.08624
H          4.18629       -1.04380        2.45286
H          5.70720       -1.46214       -0.17775
H          5.39026       -2.69315        1.05562
H          6.43954       -1.31678        1.42862
H          3.24574       -1.92757       -0.00336
