15
-1517.14
O          0.98998        0.02489        0.00941
C          2.40258       -0.00007       -0.00500
C          2.99864        1.07661        0.88595
O          4.31112        0.60555        1.22288
C          4.19644       -0.81881        1.38533
C          2.97171       -1.23057        0.62418
C          2.47322       -2.47538        0.59882
H          0.69082       -0.69723       -0.56667
H          2.77181        0.10518       -1.03152
H          2.41961        1.23073        1.80501
H          3.07526        2.03978        0.37215
H          5.10479       -1.28291        0.99148
H          4.09818       -1.03606        2.45374
H          1.56499       -2.72040        0.05944
H          2.96688       -3.28676        1.12591
