11
-1212.78
O          1.06058        0.05777        0.50373
C          2.24229       -0.03279        0.24358
C          3.33830        0.95624       -0.13257
O          4.25204       -0.16052       -0.24864
C          3.28325       -1.15189        0.18344
C          3.07078       -2.14271       -0.84308
C          2.89733       -2.97882       -1.68822
H          3.62700        1.64379        0.66414
H          3.18925        1.47219       -1.08192
H          3.54503       -1.55432        1.16676
H          2.74544       -3.72645       -2.43293
