13
-1312.75
N          0.95693        0.02107        0.24180
C          2.33254        0.07147        0.10444
C          3.03392        1.21308        0.10452
C          4.47837        1.06210       -0.14307
N          5.16927       -0.02481       -0.01351
O          4.42162       -1.09820        0.53227
C          3.10589       -1.22811       -0.02693
H          0.51765       -0.79319       -0.18329
H          0.47279        0.89061        0.03118
H          2.61063        2.20079        0.20061
H          4.98829        1.97063       -0.50321
H          2.60463       -2.02490        0.53287
H          3.17980       -1.53892       -1.07497
