10
-871.19
C          1.00460       -0.00103       -0.00103
N          2.46072        0.01316        0.00989
C          2.96822        1.37810        0.00297
H          0.64964       -1.03648        0.00675
H          0.60439        0.48529       -0.89694
H          0.59689        0.49307        0.88716
H          2.80732       -0.47777       -0.81352
H          2.63466        1.92969        0.88827
H          2.65371        1.91920       -0.89570
H          4.06258        1.36064        0.01949
