17
-1645.85
C          2.19380       -0.32798        1.52075
C          2.21011        0.06451        0.05514
C          2.41286        1.55872       -0.08732
C          1.19971        2.45073        0.03870
N          3.62813        1.99523       -0.24153
N          3.71928        3.38008       -0.30868
C          4.94932        3.74603       -0.44019
H          2.04390       -1.40686        1.62591
H          1.38988        0.18456        2.05934
H          3.13917       -0.06455        2.00719
H          1.26971       -0.22007       -0.42754
H          3.02060       -0.45980       -0.46278
H          0.28210        1.86131       -0.03752
H          1.19197        3.19901       -0.75851
H          1.21780        2.94966        1.01152
H          5.19828        4.81582       -0.50880
H          5.78883        3.03167       -0.48874
