15
-1606.49
C          1.32016       -0.24239        0.89976
C          2.20804       -0.08541       -0.09105
C          3.19169        1.04499       -0.17582
C          4.60393        0.54025       -0.14350
C          5.48747        0.72443       -1.13491
C          6.81815        0.23466       -1.04254
C          7.94278       -0.17392       -0.96960
H          0.63117       -1.08159        0.89951
H          1.26001        0.45498        1.72960
H          2.22465       -0.81088       -0.90234
H          3.05387        1.74602        0.65614
H          2.99615        1.60746       -1.09664
H          4.90573        0.00761        0.75682
H          5.20863        1.25753       -2.03889
H          8.94265       -0.53710       -0.90341
