12
-1303.54
O          1.21476       -0.00117        0.55328
C          2.37981       -0.00140        0.16603
C          3.16710       -1.26428       -0.10292
C          4.46635       -0.66937       -0.53670
C          4.46884        0.66762       -0.52914
C          3.17108        1.26166       -0.08850
H          2.70182       -1.84167       -0.90402
H          3.27813       -1.84775        0.81299
H          5.31554       -1.27546       -0.82619
H          5.31998        1.27405       -0.81195
H          3.28468        1.83458        0.83392
H          2.70833        1.85002       -0.88318
