20
-1865.45
C          0.81477        0.00693       -0.19369
C          2.32610       -0.18814       -0.18371
O          2.72212       -0.79594       -1.41186
C          3.05337        1.15030       -0.03015
C          4.58448        1.04223       -0.06477
C          5.19732        0.15421        1.01863
N          4.84893        0.61488        2.35858
H          0.46764        0.46476        0.73742
H          0.30520       -0.95446       -0.31929
H          0.50564        0.63806       -1.03397
H          2.59245       -0.86811        0.63182
H          2.23489       -1.63367       -1.49141
H          2.73537        1.64005        0.89778
H          2.75876        1.81416       -0.85345
H          5.00237        2.05374        0.02064
H          4.90127        0.66563       -1.04516
H          6.28778        0.16346        0.91244
H          4.87498       -0.88450        0.89669
H          5.17970        1.57147        2.48307
H          5.34815        0.05225        3.04646
