17
-1604.79
N          0.99119        0.03751       -0.03742
C          2.45081        0.01877        0.04352
C          3.05161        1.10341        0.93596
N          4.42957        0.63677        1.16848
C          4.29127       -0.81529        1.39090
C          3.01328       -1.26878        0.66525
O          3.27654       -2.24162       -0.34561
H          0.68171       -0.78691       -0.55554
H          0.68356        0.84920       -0.57093
H          2.83940        0.12906       -0.97790
H          2.52271        1.18509        1.89392
H          3.04102        2.08712        0.45559
H          4.97202        0.78936        0.31829
H          5.18577       -1.34617        1.04967
H          4.18692       -0.99183        2.46760
H          2.31452       -1.71026        1.38562
H          3.97489       -1.88916       -0.92396
