16
-1655.45
C          0.93420       -0.01667        0.08739
C          2.45383        0.00164       -0.03684
C          3.15633        1.06128        0.86752
C          4.20989       -0.00574        1.22298
C          3.17865       -1.07911        0.82390
C          2.86620        0.03452       -1.43332
N          3.19565        0.06064       -2.54573
H          0.61723       -0.04123        1.13649
H          0.50798       -0.89849       -0.40370
H          0.48951        0.87535       -0.36771
H          2.56268        1.38496        1.73184
H          3.54652        1.95356        0.36859
H          5.09588        0.01665        0.57813
H          4.53310       -0.02368        2.26689
H          3.58709       -1.94193        0.28908
H          2.59217       -1.45003        1.67399
