16
-1508.17
C          0.93354       -0.39839        0.09597
C          2.42171       -0.09148       -0.01236
O          2.99835       -0.96637       -0.98384
C          2.66601        1.35709       -0.42090
C          4.13107        1.67184       -0.29995
N          4.54494        2.60667        0.49390
O          5.93844        2.69119        0.39551
H          0.45137        0.22640        0.85343
H          0.77952       -1.45030        0.35979
H          0.42827       -0.23829       -0.86308
H          2.90770       -0.30627        0.94599
H          2.46210       -0.92149       -1.79455
H          2.09703        2.04506        0.21368
H          2.38453        1.52012       -1.46681
H          4.82838        1.08408       -0.92356
H          6.15097        3.40588        1.02435
