14
-1372.15
N          2.70054       -1.28818       -1.15336
C          2.47544       -0.37687       -0.16165
N          1.61106       -0.60119        0.77060
C          3.26257        0.93043       -0.15091
C          4.72621        0.64175        0.02999
C          5.67638        0.96804       -0.85632
H          3.59302       -1.19715       -1.63080
H          2.47112       -2.24977       -0.93642
H          1.14872       -1.49626        0.59963
H          2.91006        1.56487        0.66912
H          3.06652        1.45425       -1.09308
H          5.00906        0.14598        0.95681
H          5.44108        1.47965       -1.78494
H          6.72043        0.74305       -0.65901
