16
-1480.12
C          0.91879       -0.20850       -0.15810
C          2.44405       -0.11206       -0.19628
C          2.99677       -0.95394       -1.34625
N          2.83280        1.29946       -0.34659
N          4.15861        1.56552       -0.24965
C          4.45050        2.79982       -0.49673
H          0.50889        0.36307        0.68205
H          0.60035       -1.24940       -0.03587
H          0.46823        0.17509       -1.08054
H          2.83748       -0.49551        0.75307
H          2.64041       -0.59085       -2.31682
H          2.68387       -1.99878       -1.24367
H          4.09189       -0.93960       -1.36038
H          2.29793        1.85879        0.32284
H          5.50035        3.12892       -0.44802
H          3.70118        3.56394       -0.76628
