9
-925.91
N          0.95889       -0.04982       -0.11652
C          2.11921       -0.01468       -0.08366
C          3.55506       -0.00029       -0.01063
C          4.34047       -0.77032       -1.04362
N          4.34769        0.68580       -1.04155
H          3.96351        0.04481        0.99315
H          3.81296       -1.23787       -1.86724
H          5.25439       -1.26461       -0.73886
H          5.21370        1.05243       -0.64335
