15
-1516.77
N          1.13253        0.12457        0.48310
N          2.36274        0.07939       -0.07926
C          2.98938        1.21830       -0.14383
C          4.36479        1.28671       -0.76578
C          4.61365        2.75577       -0.66965
C          3.62140        3.42658       -0.07504
C          2.48737        2.55587        0.35796
H          0.81250       -0.83196        0.65859
H          0.44961        0.50184       -0.18065
H          4.33728        0.94047       -1.80082
H          5.08252        0.71101       -0.17607
H          5.51659        3.21865       -1.04813
H          3.62474        4.49677        0.08589
H          2.37745        2.54667        1.44528
H          1.55370        2.83542       -0.13573
