17
-1693.77
C          1.01220        0.03402       -0.04524
C          2.49794       -0.08460       -0.05072
C          3.19824       -0.78422       -1.17870
C          3.32384        0.71736       -1.03578
C          4.61640        1.40446       -0.62067
C          5.98492        0.99221       -1.10442
O          5.28925        2.09395       -1.69044
H          0.70619        0.89299        0.55994
H          0.56458       -0.86562        0.38847
H          0.60462        0.16487       -1.05311
H          2.89154       -0.22591        0.94978
H          2.60985       -1.16081       -2.00786
H          4.05367       -1.40269       -0.93296
H          2.75231        1.29827       -1.76180
H          4.57595        1.93421        0.32752
H          6.08009        0.09008       -1.69457
H          6.83816        1.21465       -0.47624
