16
-1582.53
C          0.97496       -0.02746        0.08098
C          2.48332        0.08370       -0.00587
C          3.16155        1.09048        0.94149
C          4.17376       -0.03293        1.23255
N          3.16737       -1.00898        0.72499
C          5.51405       -0.04822        0.42721
O          5.65382       -0.21398       -0.78536
H          0.61349       -0.88249       -0.50028
H          0.50238        0.87308       -0.32488
H          0.62993       -0.14919        1.11378
H          2.82447        0.18147       -1.04515
H          2.56543        1.38268        1.81425
H          3.56014        1.99126        0.46662
H          4.36997       -0.15543        2.30503
H          3.55893       -1.71750        0.10020
H          6.41041        0.09129        1.05512
