12
-1249.8
C          0.93432        0.02980       -0.00535
C          2.42137        0.03193       -0.00152
N          3.06736        1.20045       -0.00018
S          4.70111        0.91506        0.00383
C          4.58622       -0.79345        0.00366
C          3.25339       -1.12913        0.00051
O          2.80781       -2.40114       -0.00053
H          0.52715        1.04609        0.00383
H          0.55275       -0.49473        0.87652
H          0.55765       -0.47705       -0.89958
H          5.46499       -1.41999        0.00576
H          3.55081       -3.02808        0.00143
