21
-2044.34
C          1.05168        0.22880        0.84676
C          2.52030        0.04712        0.49907
C          3.28836        1.36416        0.60227
C          4.75208        1.15511        0.23933
C          5.68327        2.37708        0.46381
C          6.77875        1.37510        0.88034
C          5.64409        0.40428        1.26527
H          0.52144       -0.72487        0.76251
H          0.57391        0.94427        0.17020
H          0.93418        0.59332        1.87209
H          2.60497       -0.35532       -0.51763
H          2.96002       -0.69879        1.17178
H          3.19708        1.76907        1.61723
H          2.84600        2.10059       -0.07904
H          4.85916        0.75034       -0.77802
H          5.37098        3.04587        1.27477
H          5.90298        2.97539       -0.42430
H          7.39600        1.02357        0.04578
H          7.43016        1.69405        1.69757
H          5.83143       -0.65060        1.04845
H          5.31916        0.50161        2.30791
