18
-1721.82
N          1.38563        0.46111       -1.42189
C          2.77517        0.20663       -1.00978
C          3.13494        1.04846        0.23236
O          2.17904        0.78087        1.25880
C          4.49691        0.71162        0.75822
C          5.70824        1.49843        0.32301
C          5.18631        1.64024        1.72536
H          1.16807       -0.13346       -2.22138
H          1.30919        1.42070       -1.76232
H          3.46160        0.42122       -1.83666
H          2.85975       -0.86037       -0.77161
H          3.06195        2.11534       -0.01103
H          1.33881        0.64436        0.77580
H          4.61090       -0.35097        0.94422
H          5.57628        2.33970       -0.34762
H          6.63949        0.96177        0.18283
H          5.75404        1.19251        2.53350
H          4.68007        2.55979        2.00052
