18
-1778.48
N          0.84613        0.27371        0.21890
C          2.27754       -0.03719        0.18955
C          3.11767        1.23428        0.01016
C          4.60628        0.94349       -0.02010
C          5.25394        0.85886       -1.19526
C          5.35718        0.78862        1.21860
C          4.87024        0.86031        2.46440
H          0.31803       -0.59690        0.27620
H          0.57511        0.71307       -0.66045
H          2.47102       -0.73504       -0.63374
H          2.54056       -0.54917        1.12108
H          2.88682        1.96620        0.79410
H          2.82140        1.72252       -0.92904
H          4.73085        0.97947       -2.13858
H          6.32074        0.66495       -1.25653
H          6.42569        0.60021        1.11482
H          3.82468        1.04598        2.68347
H          5.53107        0.73276        3.31642
