15
-1439.64
N          1.13002        0.07256        0.47179
C          2.28957        0.22647       -0.07029
N          3.16682        1.25121        0.14737
C          2.78375        2.51632        0.74118
C          3.24383        3.52137       -0.28431
C          4.44803        2.81790       -0.85806
O          4.10263        1.42443       -0.89180
H          0.71097       -0.79554        0.11982
H          2.67251       -0.52300       -0.78646
H          3.32031        2.64781        1.68786
H          1.71053        2.60787        0.93701
H          2.47680        3.63519       -1.05854
H          3.46885        4.50632        0.13117
H          4.68450        3.16014       -1.86934
H          5.33412        2.93919       -0.22429
