20
-1910.13
C          2.07654       -0.71238       -1.27516
N          1.79341        0.41950       -0.39980
C          3.01142        1.13142        0.06233
C          3.78840        0.42434        1.14971
C          3.77866        1.97669       -0.93206
C          2.91833        2.65288        0.09897
C          3.53885        3.47694        1.17550
H          2.60728       -0.39988       -2.17926
H          1.13419       -1.17597       -1.58215
H          2.66428       -1.47950       -0.76385
H          1.16569        1.05860       -0.88689
H          4.72094        0.93879        1.40044
H          4.06192       -0.58981        0.84065
H          3.18441        0.35322        2.06073
H          3.44409        2.00717       -1.96254
H          4.85647        2.03591       -0.83144
H          1.99255        3.10816       -0.23750
H          4.57836        3.20086        1.37668
H          2.96793        3.37669        2.10373
H          3.53051        4.53310        0.88654
