17
-1641.79
C          1.08928        0.03243        0.30357
N          2.52319       -0.00412       -0.00294
C          2.87274       -1.28531       -0.66718
C          2.73492       -1.01623       -2.13590
N          3.78183       -0.36438       -2.91915
C          2.73341        0.45690       -2.31855
C          2.87028        1.07682       -0.96004
H          0.82978        0.97731        0.79296
H          0.83146       -0.76508        1.00867
H          0.45997       -0.07838       -0.58651
H          2.24260       -2.11860       -0.33832
H          3.90990       -1.54275       -0.42465
H          1.99761       -1.61315       -2.65284
H          4.64812       -0.29667       -2.37998
H          1.99503        0.90800       -2.96548
H          3.90688        1.38779       -0.78799
H          2.23836        1.96384       -0.84451
