16
-1548.78
C          2.14357       -0.47107       -1.36753
C          2.48431        0.10742       -0.00415
C          3.31065        1.37536       -0.15450
C          2.59037        2.64576       -0.63055
C          3.12890        3.26783        0.65308
O          3.56342        1.97805        1.14441
H          1.56804       -1.39528       -1.25601
H          3.05199       -0.69951       -1.93477
H          1.54812        0.23230       -1.95853
H          3.05052       -0.63616        0.56821
H          1.56071        0.30822        0.55089
H          4.26419        1.19542       -0.66795
H          1.49945        2.58154       -0.67496
H          2.97598        3.08024       -1.55600
H          3.97503        3.94958        0.52720
H          2.37683        3.71964        1.30504
