16
-1583.54
O          1.68337       -0.24028       -0.88944
C          2.83883        0.06473       -0.10010
C          3.54195       -1.09046        0.55334
C          4.14051       -0.40027       -0.64360
C          5.11236        0.72647       -0.51058
N          4.25517        1.90684       -0.34741
C          3.02831        1.48766        0.34115
H          0.87241        0.10615       -0.48151
H          3.13142       -2.08252        0.40648
H          3.99899       -0.93770        1.52353
H          4.15193       -0.88696       -1.60752
H          5.75454        0.58839        0.36684
H          5.74272        0.83050       -1.39868
H          4.73610        2.63352        0.17484
H          3.15616        1.54023        1.42805
H          2.19057        2.12851        0.05178
