15
-1581.02
O          1.03433        0.02809       -0.04913
C          2.23261        0.01433        0.02482
C          3.47956        1.05345        0.08222
C          4.06406        0.02644       -0.97170
C          3.45821       -1.05043        0.01865
C          4.23403       -0.81681        1.31496
C          4.25524        0.72584        1.35805
H          3.32033        2.08014       -0.23493
H          5.15317        0.01942       -1.08551
H          3.61426        0.06174       -1.97180
H          3.27872       -2.05265       -0.36012
H          3.71380       -1.23565        2.18182
H          5.24515       -1.23325        1.27069
H          5.27766        1.11523        1.32802
H          3.75413        1.11044        2.25139
