15
-1525.05
C          0.91139        0.02635        0.12082
C          2.42315        0.05970        0.01400
C          3.16113        1.08691        0.92350
C          4.20526       -0.02371        1.16441
O          5.36596       -0.05151        1.51863
C          3.19658       -1.11603        0.69641
O          3.73877       -2.10637       -0.19969
H          0.50555       -0.81945       -0.44359
H          0.47844        0.94325       -0.29165
H          0.58133       -0.06845        1.15999
H          2.71403        0.17352       -1.04106
H          2.63385        1.37881        1.83640
H          3.54455        1.97143        0.41099
H          2.68053       -1.58440        1.54231
H          4.67266       -2.19727        0.06797
