15
-1554.
C          0.94349       -0.03744        0.00726
C          2.43612       -0.00277        0.00901
C          3.13902        1.13799        0.00000
C          4.54502        1.13799        0.00000
C          5.73518        1.13799        0.00000
C          7.17918        1.13799        0.00000
O          7.67019        2.47144       -0.04145
H          0.59451       -1.07446       -0.03806
H          0.53937        0.48831       -0.86377
H          0.54180        0.41118        0.92138
H          2.95035       -0.96109        0.01840
H          2.63023        2.09781       -0.00597
H          7.57829        0.60147       -0.86610
H          7.57641        0.66172        0.90101
H          7.20325        2.91678       -0.76877
