14
-1395.04
C          0.20403        0.46632       -0.39689
C          1.53321       -0.15638       -0.11109
N          2.52639        0.56047        0.30053
O          3.63734       -0.28136        0.48585
C          4.74314        0.50415        0.93933
C          5.90739       -0.36654        1.14538
C          6.86107       -1.07691        1.31517
H         -0.05369        0.28511       -1.44346
H          0.22510        1.54163       -0.20419
H         -0.55125       -0.00612        0.23628
H          1.62124       -1.24588       -0.26873
H          4.47169        0.99970        1.87814
H          4.97174        1.26953        0.18931
H          7.70461       -1.71051        1.46477
