17
-1775.15
C          1.12503        0.17607        0.20529
C          2.42225       -0.07374       -0.00857
C          3.00332       -1.46227       -0.15472
C          4.22908       -1.25769       -1.05843
C          4.62499        0.18246       -0.87750
C          3.91228        1.28505       -1.61508
C          3.48164        0.92086       -0.22580
H          0.75627        1.19509        0.26297
H          0.40576       -0.62783        0.32112
H          2.30426       -2.18599       -0.58399
H          3.32415       -1.82212        0.83021
H          5.03890       -1.93874       -0.77847
H          3.97228       -1.45094       -2.10662
H          5.62749        0.33698       -0.50540
H          4.43616        2.22484       -1.74872
H          3.26347        1.02707       -2.44446
H          3.70845        1.59108        0.59436
