15
-1444.08
C          0.99128        0.03719       -0.08351
C          2.50773        0.01553        0.04882
C          3.01793       -1.32647        0.61909
N          3.63348       -0.92262        1.87613
O          3.11829       -1.59891        2.98390
C          3.46320        0.43182        1.98063
N          2.91233        1.08870        1.00603
H          0.64802       -0.74091       -0.77296
H          0.65054        1.00601       -0.46207
H          0.50573       -0.12565        0.88548
H          2.96654        0.21086       -0.92700
H          3.78269       -1.75629       -0.03828
H          2.22115       -2.06623        0.75388
H          3.85592       -2.18143        3.24736
H          3.82978        0.89329        2.91136
