17
-1652.24
N          0.75535       -0.05706       -0.04095
C          2.19824       -0.02051        0.19802
C          3.11597       -0.87852       -0.63144
C          2.69311       -1.45996       -1.94715
C          2.86022       -0.30859       -2.94832
N          2.73308        0.94438       -2.18104
C          3.13490        0.61353       -0.79888
H          0.39549        0.89219       -0.15012
H          0.25671       -0.48215        0.73603
H          2.47128        0.11957        1.24225
H          3.96326       -1.36219       -0.17207
H          3.31972       -2.31351       -2.22563
H          1.65260       -1.80004       -1.91178
H          3.86567       -0.35511       -3.38519
H          2.13249       -0.36200       -3.76301
H          3.32670        1.65961       -2.59499
H          3.98605        1.16067       -0.40549
