14
-1297.16
O          0.89903        0.00038        0.27065
S          2.29001        0.05047       -0.13066
O          2.69030        0.22064       -1.51372
C          3.13765        1.25986        0.84885
C          4.46221        0.58441        1.19113
N          4.18104       -0.80562        1.59329
C          3.21028       -1.32260        0.59491
H          2.54284        1.45201        1.74643
H          3.26751        2.17794        0.27295
H          5.12454        0.58289        0.31648
H          4.97522        1.11747        1.99734
H          5.03356       -1.36513        1.57088
H          3.73518       -1.83022       -0.21995
H          2.50486       -2.00653        1.07207
