18
-1735.31
C          1.01743       -0.01973        0.00987
C          2.53644       -0.00081        0.05093
C          3.09476        1.15322        0.87375
C          4.49423        0.67227        1.21156
O          5.39072        0.99954        0.14799
C          4.33903       -0.84519        1.34719
N          3.06195       -1.20071        0.70997
H          0.65376       -0.86451       -0.58469
H          0.63355        0.90093       -0.44139
H          0.58760       -0.10566        1.01376
H          2.92672        0.05125       -0.97369
H          2.51417        1.29270        1.79377
H          3.09311        2.08881        0.30631
H          4.87717        1.13528        2.12554
H          5.14353        0.46543       -0.62622
H          5.17133       -1.38699        0.88527
H          4.27795       -1.12903        2.40219
H          3.18130       -1.96208        0.04391
