14
-1411.06
O          1.28435       -0.00427        0.83629
C          2.06721        0.14500       -0.27248
O          1.89222       -0.54671       -1.26890
C          3.15730        1.26071       -0.07632
C          2.80315        2.69055       -0.53341
C          3.46376        3.13902        0.77756
N          3.17057        1.79787        1.33813
H          1.59600        0.66282        1.49286
H          4.15128        0.93265       -0.40760
H          1.72819        2.90004       -0.58799
H          3.28408        3.03562       -1.45205
H          4.53515        3.35351        0.68857
H          2.97505        3.96885        1.29458
H          3.93381        1.42679        1.90968
