11
-1183.44
O          1.92908       -0.78342       -0.76911
C          2.01685        0.11437        0.06375
C          3.10581        1.13209        0.06491
C          2.66154        2.48230        0.48992
N          2.85302        3.39244       -0.40609
N          3.44944        2.76885       -1.54388
C          3.58808        1.50912       -1.28587
H          1.33251        0.13619        0.92933
H          3.92498        0.78996        0.70069
H          2.23183        2.66980        1.48305
H          4.03126        0.77595       -1.97357
