10
-1105.67
C         -0.63560       -1.24369       -0.02204
C         -1.39411       -0.08264       -0.02496
C         -0.73031        1.12613        0.05943
N          0.61283        1.21349        0.14345
N          1.35740        0.07383        0.14632
C          0.73781       -1.12147        0.06508
H         -1.10226       -2.21989       -0.08602
H         -2.47518       -0.11816       -0.09130
H         -1.25921        2.07184        0.06240
H          1.39171       -1.98564        0.07263
