14
-1459.06
O          1.40335        0.28868        0.71850
C          2.44580       -0.01554        0.16299
C          2.92636       -1.41197       -0.20053
N          4.19614       -1.24309       -0.95680
C          4.59109        0.17293       -0.85468
C          3.85815        1.22459       -1.63245
C          3.48649        0.96678       -0.19798
H          2.18227       -1.92004       -0.81738
H          3.11025       -1.96734        0.72382
H          4.90400       -1.86572       -0.56500
H          5.61808        0.37740       -0.57064
H          4.38477        2.14496       -1.85920
H          3.17303        0.91140       -2.41235
H          3.75448        1.69877        0.55213
