17
-1721.9
C          0.98820        0.02241        0.10287
C          2.32736        0.00819        0.03428
C          3.14501       -1.25968       -0.00822
C          4.11902       -1.21108       -1.18800
O          4.93982       -0.03525       -1.13624
C          4.14512        1.15599       -1.22055
C          3.17034        1.25776       -0.04448
H          0.43075        0.95460        0.12087
H          0.41245       -0.89708        0.14742
H          2.51200       -2.15042       -0.08449
H          3.71135       -1.33195        0.92830
H          4.78538       -2.07923       -1.15300
H          3.58876       -1.24008       -2.14797
H          4.83003        2.00986       -1.20699
H          3.61691        1.17129       -2.18165
H          3.73692        1.34627        0.89091
H          2.55516        2.15838       -0.14768
