15
-1475.08
N          2.51437       -0.98142        0.94935
C          2.19684       -0.11048       -0.05555
O          1.18132       -0.26542       -0.72870
C          3.13286        1.08890       -0.21243
N          4.49513        0.72785        0.23703
C          5.45775        0.60311       -0.85624
C          5.45467        1.81324        0.03784
H          3.45663       -0.94265        1.32285
H          1.97379       -1.83104        1.03394
H          2.73593        1.89311        0.41794
H          3.09285        1.41413       -1.25905
H          5.11696        0.71331       -1.87936
H          6.24389       -0.13008       -0.71507
H          6.23363        1.89537        0.78574
H          5.09791        2.75402       -0.36268
