15
-1519.22
O          2.37669       -0.35271       -1.48540
C          2.34270        0.16222       -0.15619
C          3.30635        1.34253        0.00779
O          3.36103        1.72348        1.40111
C          3.15695        3.14380        1.49999
C          2.78815        3.59423        0.13896
C          2.86877        2.57247       -0.71102
H          1.74978       -1.09584       -1.51204
H          2.61965       -0.64239        0.53361
H          1.31477        0.45714        0.08363
H          4.31428        1.06082       -0.31869
H          4.08259        3.61319        1.84631
H          2.35875        3.33267        2.22336
H          2.51067        4.60493       -0.11663
H          2.67203        2.60990       -1.77175
