16
-1631.75
C          1.00939        0.03440        0.01931
C          2.49473       -0.00647       -0.02045
C          3.27385       -1.09268       -0.09453
C          4.72324       -0.73753       -0.07318
C          4.70640        0.76949       -0.32244
C          3.30615        1.24910        0.05974
H          0.57753       -0.96988       -0.03824
H          0.62213        0.61632       -0.82272
H          0.66559        0.49730        0.94936
H          2.91412       -2.11201       -0.13319
H          5.15933       -0.98044        0.90116
H          5.28303       -1.26036       -0.85389
H          4.88657        0.96931       -1.38696
H          5.48868        1.28998        0.23944
H          2.95402        2.01664       -0.63590
H          3.28618        1.65210        1.07793
