15
-1522.31
C          0.95533       -0.00649        0.10153
C          2.44465       -0.23085        0.09572
C          2.96202       -1.45446        0.30651
C          3.31925        0.96892       -0.17664
O          2.93154        1.54903       -1.41317
C          3.21211        1.96176        0.97930
O          2.77133        3.10179        0.83765
H          0.67561        0.69733        0.89167
H          0.40279       -0.93533        0.27869
H          0.61997        0.39587       -0.85927
H          2.32541       -2.31669        0.48586
H          4.03254       -1.63709        0.28272
H          4.37524        0.68950       -0.26127
H          2.64303        2.46016       -1.20522
H          3.58382        1.60579        1.95497
