19
-1739.36
C          4.10305       -1.31891        0.92477
C          3.29832       -0.62507       -0.17687
N          1.86877       -0.93189        0.01369
C          3.48676        0.91304       -0.19760
O          3.10371        1.47451        1.07160
C          4.93036        1.35290       -0.51017
N          5.02502        2.82119       -0.47000
H          5.17857       -1.18248        0.77514
H          3.91762       -2.39947        0.92160
H          3.84655       -0.93956        1.92009
H          3.60294       -1.03582       -1.14575
H          1.53926       -0.34733        0.78932
H          1.75465       -1.89501        0.32339
H          2.81430        1.34509       -0.95110
H          3.52017        2.36167        1.07376
H          5.24467        0.98289       -1.49087
H          5.62106        0.96891        0.24621
H          4.46184        3.21470       -1.22572
H          5.98729        3.09492       -0.67215
