15
-1522.61
C          0.55343        0.27795       -0.05943
C          1.98865        0.07547        0.30475
C          2.99622        0.81798       -0.18658
C          4.44080        0.61793        0.15007
O          5.14173        0.43000       -1.06892
C          4.94491        1.84441        0.90657
O          5.89479        2.52310        0.51666
H          0.16816       -0.61257       -0.56553
H          0.41064        1.13756       -0.72088
H         -0.03959        0.44317        0.84548
H          2.19752       -0.74012        0.99362
H          2.77880        1.61358       -0.89688
H          4.60514       -0.25886        0.78374
H          5.91873        1.02254       -1.03026
H          4.44032        2.06087        1.86340
