14
-1369.63
C          0.91695       -0.54598        0.21835
C          2.33361        0.01334        0.15307
C          2.38420        1.50042       -0.19035
O          1.73988        1.73431       -1.43627
C          1.77949        2.34285        0.92521
O          0.84855        3.12291        0.73412
H          0.94609       -1.61742        0.44434
H          0.39189       -0.41962       -0.73456
H          0.33021       -0.05491        1.00178
H          2.87822       -0.54634       -0.61625
H          2.83467       -0.16938        1.10974
H          3.42776        1.81673       -0.29474
H          1.03165        2.38847       -1.26343
H          2.24781        2.23707        1.91767
