17
-1615.06
C          1.22289       -0.10662        0.22646
C          2.50819        0.37243       -0.43996
C          2.85867       -0.49740       -1.64882
O          4.18378       -0.22225       -2.09810
C          2.42672        1.82623       -0.89227
N          1.26678        2.37389       -1.34475
N          3.48372        2.57172       -0.91261
H          0.92844        0.56656        1.03864
H          1.35883       -1.10755        0.65013
H          0.39169       -0.15831       -0.48542
H          3.32138        0.30798        0.29486
H          2.16947       -0.33974       -2.48571
H          2.82644       -1.55800       -1.37857
H          4.17184        0.67575       -2.48284
H          0.40149        2.07823       -0.91148
H          1.34073        3.38398       -1.43110
H          4.29869        2.04839       -0.56538
