15
-1549.69
C          1.03169        0.07521        0.08301
C          2.50953       -0.01542       -0.02863
C          3.27900       -1.11765       -0.04301
C          4.74670       -0.76435       -0.19572
C          4.61913        0.75477       -0.28920
N          5.60381        1.56344       -0.47685
N          3.30691        1.09068       -0.15487
H          0.56940       -0.91721        0.09244
H          0.61677        0.63088       -0.76407
H          0.74846        0.59009        1.00643
H          2.91734       -2.13230        0.03439
H          5.33230       -1.04862        0.68123
H          5.17555       -1.17227       -1.11348
H          6.47963        1.03652       -0.54966
H          2.96138        2.03385       -0.23851
