17
-1620.88
C          1.07272        0.07126       -0.10637
C          2.56004        0.10874       -0.04064
N          3.35367       -0.54710       -1.07515
C          3.43269        0.91939       -0.99153
C          2.82652        1.72020       -2.11344
C          4.70609        1.50025       -0.43329
H          0.65214        0.86390        0.52055
H          0.70680       -0.88772        0.27497
H          0.67910        0.19559       -1.11877
H          2.91187       -0.03783        0.97567
H          2.77133       -0.84211       -1.85957
H          2.00272        1.20124       -2.61332
H          3.58209        1.93396       -2.87770
H          2.44694        2.67404       -1.73345
H          5.12342        0.88693        0.37308
H          4.51925        2.50117       -0.03004
H          5.46568        1.58264       -1.21806
