13
-1346.56
C          0.96670       -0.04123       -0.12907
N          2.40161        0.03761        0.10129
C          3.14021       -1.21145        0.04290
C          3.11179        1.24413        0.13702
O          4.33712        1.29208        0.22239
C          2.37471        2.50525        0.06146
N          1.75412        3.48867       -0.00544
H          0.45713        0.89086        0.12128
H          0.54861       -0.84123        0.48907
H          0.79730       -0.26884       -1.18556
H          2.68401       -1.92839        0.73172
H          4.18979       -1.07968        0.31806
H          3.08766       -1.60054       -0.97827
