11
-1158.07
C          2.83236       -1.19083        0.43590
C          2.29422        0.00406        0.16367
C          3.02262        1.22494        0.10789
C          2.55904        2.50832       -0.16047
N          3.50168        3.52144       -0.14925
N          4.70554        3.05480        0.12468
S          4.72225        1.40409        0.37093
H          2.20297       -2.07654        0.45899
H          3.88594       -1.34716        0.64260
H          1.22388        0.05333       -0.02957
H          1.53008        2.76574       -0.37376
