16
-1582.32
C          0.81025        0.27769       -0.05019
C          2.28670        0.06162        0.16132
O          2.70153       -1.07594        0.42027
C          3.22922        1.27412        0.05622
C          2.67949        2.70904        0.18548
N          3.88302        3.06954        0.96391
C          4.04750        1.63934        1.31127
H          0.64858        0.83868       -0.97431
H          0.39084        0.81691        0.80250
H          0.30587       -0.68862       -0.14190
H          3.87436        1.17194       -0.83062
H          1.75328        2.81359        0.76201
H          2.56509        3.25529       -0.75577
H          4.64655        3.43172        0.39057
H          5.08341        1.28777        1.31910
H          3.57791        1.36722        2.26411
