9
-947.54
C          1.00000        0.00000        0.00000
C          2.44400        0.00000        0.00000
C          3.63416        0.00000        0.00000
C          5.07956       -0.00000       -0.00000
C          6.37613       -0.00000       -0.00000
H          0.47242        1.23067        0.02071
H          0.48495       -0.61396        1.07161
H          0.48691       -0.60059       -1.09184
H          7.51129       -0.00000       -0.00000
