13
-1366.08
C          1.03142       -0.07202        0.00165
C          2.49411        0.08215       -0.01623
C          3.36240        1.14711        0.01315
N          4.65699        0.69452       -0.02695
C          4.52884       -0.60778       -0.09165
N          5.48264       -1.53690       -0.14134
O          3.24427       -1.05999       -0.07708
H          0.53422        0.90258        0.01898
H          0.71557       -0.63147        0.88734
H          0.69111       -0.61180       -0.88722
H          3.13002        2.20120        0.06152
H          5.22466       -2.46871        0.15443
H          6.40281       -1.23742        0.15460
