21
-2046.05
C          3.00876       -0.81657       -1.23538
C          2.50761        0.04165       -0.07764
C          3.02486        1.50662       -0.06153
C          2.50579        2.26587       -1.29958
C          2.44673        2.20375        1.18889
C          4.54294        1.51657        0.07534
C          5.43754        2.08133       -0.74811
H          2.59535       -1.82784       -1.15257
H          4.09959       -0.90604       -1.23033
H          2.69677       -0.41378       -2.20355
H          2.78716       -0.45849        0.85902
H          1.41036        0.04308       -0.10459
H          2.91344        1.86354       -2.23322
H          2.77084        3.32932       -1.25614
H          1.41298        2.20668       -1.36578
H          2.75155        1.69491        2.11154
H          1.35052        2.21298        1.16568
H          2.78544        3.24472        1.25872
H          4.93494        0.99726        0.95107
H          5.15265        2.61918       -1.64474
H          6.49989        2.01416       -0.53393
