13
-1293.85
N          1.21974        0.05525        0.43021
C          2.36314       -0.13617       -0.11537
N          2.91647       -1.30595       -0.54992
O          4.31035       -1.19218       -0.73334
C          4.61299        0.22575       -0.62962
C          4.00972        1.16348       -1.63603
C          3.33211        0.94842       -0.30617
H          1.09218        1.04735        0.65306
H          2.59804       -2.14925       -0.08625
H          5.52226        0.52091       -0.12122
H          4.50424        2.11218       -1.80389
H          3.55391        0.73813       -2.52227
H          3.37879        1.72943        0.44092
