10
-1154.32
C          0.94590        0.07500        0.00012
C          2.14559        0.01724        0.00037
C          3.56696       -0.05260        0.00068
N          4.27034        1.08194        0.00060
O          5.60005        0.68132        0.00094
C          5.65915       -0.67510        0.00122
C          4.38940       -1.19199        0.00106
H         -0.11715        0.13756       -0.00010
H          6.65237       -1.09879        0.00150
H          4.10245       -2.23174        0.00121
