15
-1584.04
C          0.88060        0.19474       -0.05187
C          2.23303       -0.45788       -0.00565
C          2.20302       -1.94568        0.05755
O          1.15563       -2.58333        0.05820
C          3.37042        0.25990       -0.01972
C          4.73426       -0.21801        0.00949
C          5.78667        0.60959        0.01046
H          0.95121        1.28635       -0.10566
H          0.30365       -0.05422        0.84527
H          0.32198       -0.14191       -0.93168
H          3.17328       -2.46044        0.10667
H          3.27282        1.34607       -0.06191
H          4.93314       -1.28522        0.02704
H          5.67958        1.68990       -0.00682
H          6.79821        0.21455        0.02968
