17
-1663.65
N          0.97980       -0.05227        0.31948
C          2.42125        0.02703        0.09804
C          2.79480        1.31073       -0.70234
N          4.15890        1.26320       -1.25915
C          4.26488        0.14652       -2.20706
C          3.72018       -1.14513       -1.66827
C          2.89282       -1.21119       -0.61100
H          0.65677        0.80706        0.75981
H          0.78121       -0.80253        0.97797
H          2.92172        0.06663        1.07364
H          2.08188        1.48406       -1.52005
H          2.71732        2.18178       -0.04025
H          4.81277        1.08452       -0.49777
H          5.32273        0.01224       -2.45858
H          3.74672        0.39786       -3.14005
H          4.01478       -2.05699       -2.17923
H          2.54680       -2.17713       -0.25721
