14
-1354.39
O          1.12511        0.98709        1.38701
N          2.51147        0.81377        1.31855
C          2.91932        1.19296        0.15052
C          4.37698        1.14996       -0.21061
C          4.96669        2.52148       -0.20311
C          6.00865        2.93578       -1.20728
O          4.63149        3.31846       -1.34672
H          0.92254        0.71313        2.30078
H          2.22557        1.59107       -0.61106
H          4.46124        0.68420       -1.19870
H          4.91252        0.51952        0.50696
H          4.95808        2.99341        0.77139
H          6.39523        2.20242       -1.90397
H          6.71311        3.70989       -0.92751
