19
-1868.5
C          3.00963       -1.54657        0.14590
C          2.49246       -0.25259        0.76039
C          3.29072        0.98152        0.31173
C          2.63584        2.25949        0.83232
C          4.73340        0.94300        0.80531
C          5.76657        1.61192       -0.06770
O          5.05095        0.42866        1.87745
H          2.39279       -2.38964        0.47402
H          4.04113       -1.75188        0.44690
H          2.97134       -1.50469       -0.94717
H          2.50912       -0.34462        1.85315
H          1.44215       -0.12998        0.46847
H          3.30652        1.00815       -0.78481
H          2.57451        2.25516        1.92624
H          1.62194        2.36865        0.43421
H          3.20886        3.14602        0.54056
H          5.52096        2.66963       -0.18891
H          5.79745        1.11773       -1.04182
H          6.75119        1.53068        0.39958
