16
-1563.58
C          1.70304       -0.11554       -0.12885
C          0.86402       -1.19027        0.56422
C         -0.42209       -1.51414       -0.17656
C         -1.48106       -0.43648       -0.25430
N         -1.38880        0.84037       -0.02397
O         -0.14366        1.27421        0.45779
C          0.88612        1.10867       -0.51483
H          2.20363       -0.51943       -1.01647
H          2.49830        0.18589        0.56476
H          1.46875       -2.10032        0.65565
H          0.62889       -0.87280        1.58775
H         -0.89973       -2.37394        0.30791
H         -0.20192       -1.82274       -1.20510
H         -2.46324       -0.78260       -0.62037
H          1.51704        2.00339       -0.50991
H          0.47156        1.01130       -1.52613
