22
-2051.29
C          1.92329       -1.34801        0.26042
C          3.18027       -0.75659       -0.38451
C          2.88147       -0.35647       -1.83101
C          3.68534        0.43830        0.45596
N          4.89388        1.09533       -0.07282
C          5.15220        2.33559        0.66342
C          6.06922        0.22560        0.00006
H          2.13029       -1.67661        1.28436
H          1.56930       -2.21746       -0.30352
H          1.11093       -0.61428        0.29672
H          3.93992       -1.54709       -0.39452
H          2.13417        0.44302       -1.87522
H          2.49493       -1.21097       -2.39686
H          3.78417       -0.00730       -2.34216
H          3.85618        0.11031        1.49045
H          2.87346        1.17749        0.49530
H          4.30466        3.02419        0.57009
H          6.02225        2.85719        0.24830
H          5.33442        2.15378        1.72916
H          5.95596       -0.65081       -0.64546
H          6.26798       -0.11676        1.02214
H          6.96007        0.75158       -0.36298
