17
-1693.31
C          1.53342       -0.45294        0.88077
C          2.35329        0.05164       -0.05073
C          3.00363        1.39549        0.02099
O          4.41008        1.18882       -0.03835
C          5.12096        2.42120       -0.01928
C          6.57907        2.09338        0.00405
C          7.47423        2.51716       -0.89713
H          1.10638       -1.44408        0.76266
H          1.28339        0.09803        1.78168
H          2.58618       -0.54417       -0.93015
H          2.74377        1.91793        0.94878
H          2.67921        2.00091       -0.83284
H          4.86452        2.98666        0.88366
H          4.85556        3.01539       -0.90120
H          6.91069        1.45535        0.82019
H          7.18972        3.14551       -1.73541
H          8.51794        2.22861       -0.81716
