14
-1383.16
C          0.87061       -0.25003       -0.06149
C          2.36955        0.02165       -0.13391
C          3.03732       -0.90342       -1.14446
O          2.59410        1.37199       -0.58035
C          2.55710        2.32824        0.38005
O          2.35374        2.16276        1.57176
H          0.38990        0.40878        0.66850
H          0.67005       -1.28658        0.22612
H          0.39046       -0.05316       -1.02618
H          2.83492       -0.14090        0.84604
H          2.62846       -0.74989       -2.14910
H          2.90719       -1.95419       -0.86854
H          4.10964       -0.68899       -1.20532
H          2.74255        3.30806       -0.08618
