19
-1904.81
C          2.58176       -1.10436        1.18026
C          3.17722       -0.44032       -0.05162
C          3.08940        1.05601        0.03509
C          4.15595        1.87176        0.00704
C          4.07529        3.36941        0.07997
C          4.80580        3.89324        1.28227
C          5.85416        4.72461        1.22820
H          2.65167       -2.19328        1.09333
H          1.52501       -0.84288        1.29968
H          3.11299       -0.80192        2.08879
H          2.63337       -0.77345       -0.94308
H          4.21703       -0.76718       -0.17008
H          2.08990        1.47917        0.11507
H          5.15499        1.44944       -0.08482
H          3.03250        3.70419        0.13313
H          4.49393        3.78588       -0.84399
H          4.43746        3.57131        2.25471
H          6.25538        5.07766        0.28314
H          6.33593        5.07018        2.13785
