14
-1427.57
N          0.99466        0.00952       -0.09245
C          2.44483       -0.00873        0.06000
C          3.00386        1.08426        0.95329
O          4.27394        0.58996        1.38240
C          4.26782       -0.77424        1.28884
O          5.19397       -1.48765        1.63795
C          2.95739       -1.25673        0.74458
H          0.69400       -0.76796       -0.68213
H          0.70182        0.85973       -0.57544
H          2.91067        0.06867       -0.93129
H          2.38808        1.27165        1.84067
H          3.13778        2.02543        0.41188
H          3.10211       -2.07529        0.03561
H          2.32692       -1.57708        1.57954
