18
-1722.72
C          2.82868       -1.32927       -0.46339
C          2.30380       -0.11433        0.28618
O          2.04008       -0.50013        1.63854
C          3.31316        1.03534        0.30246
N          4.50633        0.84335        1.15700
C          3.47722        1.87030       -0.94447
C          2.76548        2.44380        0.24596
H          3.05863       -1.08636       -1.50489
H          2.08843       -2.13589       -0.44626
H          3.73518       -1.72599        0.00614
H          1.35371        0.20301       -0.16059
H          1.80433        0.31913        2.10855
H          4.23055        0.31650        1.99061
H          5.17514        0.23504        0.68368
H          2.88509        1.62678       -1.81855
H          4.46142        2.26056       -1.17783
H          3.27416        3.21625        0.81250
H          1.69465        2.59114        0.17214
