15
-1573.34
C          0.94252        0.04650       -0.01060
C          2.43712        0.05072       -0.00170
C          3.20291        1.20237        0.00855
S          4.87883        0.88862        0.01676
C          4.61240       -0.79542        0.00664
C          3.27000       -1.13117       -0.00279
C          2.78104       -2.54342       -0.01320
H          0.54012        1.06437       -0.00513
H          0.55805       -0.47285        0.87267
H          0.56878       -0.45931       -0.90625
H          2.85328        2.22566        0.01159
H          5.45804       -1.46923        0.00803
H          1.68927       -2.60109       -0.00732
H          3.15051       -3.07764        0.86776
H          3.14056       -3.06070       -0.90824
