12
-1208.21
N          2.93107       -1.54880        0.70214
C          2.38480       -0.52593        0.14990
N          2.98373        0.67145       -0.06585
C          4.40745        0.84817        0.11555
C          4.76412        2.24545       -0.17085
C          5.05432        3.38733       -0.40626
H          2.25181       -2.31624        0.74777
H          1.33788       -0.55444       -0.19909
H          2.55638        1.29462       -0.73996
H          4.95635        0.18265       -0.56015
H          4.69260        0.59798        1.14344
H          5.31313        4.40085       -0.61052
