11
-1237.38
C          1.00421       -0.12687       -0.13310
C          2.19063        0.02223       -0.02459
C          3.60301        0.20674        0.11010
O          4.36472       -0.47443       -0.89596
C          4.35657        0.95845       -0.95853
C          5.62116        1.54800       -0.64273
C          6.67911        2.04991       -0.37684
H         -0.04808       -0.26203       -0.23100
H          4.00288        0.20303        1.11787
H          3.79254        1.41316       -1.76456
H          7.61951        2.49266       -0.14184
