15
-1588.6
C          0.87539       -0.02860       -0.24407
C          2.18905        0.00030        0.01581
C          2.94312        1.26612        0.34126
C          4.35660        1.18932       -0.23362
O          5.07597        0.03067        0.21854
C          4.33496       -1.12480        0.15644
C          3.00355       -1.19622        0.02622
H          0.27978        0.87958       -0.23478
H          0.35435       -0.95489       -0.46721
H          2.42941        2.15064       -0.05251
H          2.99905        1.36505        1.43291
H          4.92929        2.06924        0.07724
H          4.33987        1.18325       -1.33084
H          4.97399       -1.99441        0.24292
H          2.51865       -2.16568       -0.04163
