18
-1764.35
C          1.07092        0.19337       -0.23808
N          2.49788        0.13560        0.05866
C          3.22702       -0.80863       -0.77244
C          3.33349        0.68523       -1.00935
C          4.56802        1.38892       -0.62210
C          4.40628        2.53276        0.34591
C          5.78122        1.09037       -1.12119
H          0.67290        1.16688        0.06537
H          0.54577       -0.57407        0.33925
H          0.82231        0.04465       -1.29580
H          2.67859       -1.40613       -1.49103
H          4.04660       -1.32355       -0.28493
H          2.83640        1.09476       -1.88420
H          3.65665        3.24056       -0.02461
H          5.33998        3.08765        0.49005
H          4.08407        2.16601        1.32593
H          5.91132        0.28232       -1.83401
H          6.67007        1.63844       -0.82635
