20
-1913.05
C          1.38617        2.08590       -0.42862
C          2.69523        1.76469        0.27577
N          3.81752        2.04231       -0.61778
C          5.13506        1.67992       -0.05530
C          5.59141        2.45790        1.15589
C          5.58038        0.24217       -0.17657
C          6.19478        1.28721       -1.05931
H          0.54084        1.89130        0.23969
H          1.25658        1.46911       -1.32476
H          1.34270        3.13894       -0.72726
H          2.69291        0.70974        0.57096
H          2.76582        2.37152        1.18440
H          3.80393        3.02226       -0.89912
H          6.64505        2.26840        1.39002
H          5.00402        2.17850        2.03641
H          5.47512        3.53373        0.98794
H          4.90380       -0.46995       -0.63579
H          6.19158       -0.18039        0.61204
H          7.22469        1.56922       -0.87168
H          5.93158        1.27563       -2.11121
