21
-1989.7
C          2.90325       -1.11271        1.20426
C          3.49909       -0.86430       -0.17856
C          2.43684       -1.08305       -1.25154
O          3.93990        0.48968       -0.30636
C          5.18403        0.79823        0.32729
C          6.35735        0.33219       -0.52982
C          5.22594        2.31383        0.49535
H          3.66670       -1.03967        1.98408
H          2.45575       -2.10943        1.26838
H          2.13760       -0.36586        1.44028
H          4.32555       -1.55871       -0.36214
H          1.60462       -0.38081       -1.12941
H          2.04262       -2.10336       -1.22146
H          2.85754       -0.90154       -2.24630
H          5.23921        0.33890        1.31891
H          6.27597        0.72134       -1.55015
H          6.38085       -0.75855       -0.60871
H          7.31084        0.65809       -0.10307
H          5.15149        2.81946       -0.47298
H          6.14895        2.63473        0.98970
H          4.37437        2.65354        1.09429
