22
-2058.97
C          1.82272        0.66701        0.04873
C          3.01366        1.46680        0.56072
N          4.19640        1.12921       -0.22693
C          5.44696        1.81266        0.15337
C          5.86637        1.47418        1.59365
C          6.53366        1.28430       -0.80370
C          5.34571        3.33721       -0.01937
H          0.92792        0.90970        0.63191
H          2.00107       -0.40951        0.13759
H          1.61108        0.89569       -1.00153
H          3.15862        1.22309        1.61705
H          2.77445        2.53193        0.48065
H          4.00234        1.30286       -1.21364
H          5.18126        1.90247        2.33254
H          6.86386        1.87190        1.81346
H          5.90272        0.39050        1.75330
H          6.29462        1.51365       -1.84900
H          6.64855        0.19729       -0.71761
H          7.50756        1.73644       -0.58378
H          5.00571        3.60258       -1.02702
H          6.32068        3.81360        0.13443
H          4.65221        3.78543        0.70002
