13
-1365.99
C          2.58364        0.08046        0.68122
N          1.69225        0.42789       -0.44183
C          2.45080        1.50783       -0.69330
C          2.52092        2.77920       -1.12359
N          3.56448        3.32799       -0.36559
C          3.97032        2.42548        0.62862
C          3.30613        1.29063        0.32348
H          3.09765       -0.87018        0.51477
H          2.12182        0.08659        1.67169
H          1.69161       -0.29925       -1.14943
H          1.89104        3.40606       -1.74123
H          3.81443        4.30791       -0.37428
H          4.55149        2.75929        1.47620
