17
-1714.43
C          1.77405        0.08334       -0.74199
C          1.84924       -0.08851        0.75052
C          0.51766        0.04604        0.07597
C         -0.34675        1.24569        0.27070
C         -1.71030        0.72902       -0.16309
C         -1.65718       -0.74686        0.19930
O         -0.29338       -1.14093       -0.01538
H          2.09623        1.03001       -1.15866
H          1.99832       -0.77589       -1.36314
H          2.12186       -1.06432        1.13639
H          2.21593        0.74248        1.34048
H         -0.36718        1.53340        1.32801
H         -0.03603        2.11103       -0.32356
H         -2.54521        1.25742        0.30501
H         -1.80604        0.83196       -1.25025
H         -2.32049       -1.35187       -0.42335
H         -1.89864       -0.91108        1.25490
