16
-1608.25
C          0.68472       -0.01941        0.21838
C          2.17876       -0.05695        0.21125
C          2.95172        0.99553       -0.10071
C          4.44665        0.98144       -0.09358
N          4.88927        1.18982       -1.44754
C          6.14493        1.66517       -1.71582
O          6.96593        2.02654       -0.88564
H          0.28988       -0.77368       -0.46903
H          0.29372        0.95685       -0.08599
H          0.31095       -0.23908        1.22305
H          2.63692       -1.00485        0.48577
H          2.48835        1.94603       -0.35770
H          4.85250        0.02299        0.24794
H          4.83506        1.77110        0.55779
H          4.35738        0.77580       -2.20145
H          6.34963        1.69197       -2.79902
