13
-1375.03
O          0.93022       -0.02810        0.00778
C          2.15721       -0.02169        0.00373
N          2.86161        1.14101        0.00293
C          4.29897        1.24801       -0.03467
C          4.95430       -0.09015       -0.00994
C          4.25006       -1.22467        0.00635
N          2.88793       -1.17346        0.00509
H          2.29621        1.97799       -0.00226
H          4.60911        1.84437        0.82876
H          4.56834        1.79067       -0.94592
H          6.03860       -0.12366       -0.01008
H          4.70818       -2.20682        0.01931
H          2.34331       -2.02701        0.01282
