10
-1167.84
C          1.00000        0.00000        0.00000
C          2.44400        0.00000        0.00000
C          3.63416        0.00000        0.00000
C          5.08173       -0.00745        0.00000
O          5.68362       -1.07512        0.00000
C          5.79280        1.25734        0.00000
N          6.34271        2.28253        0.00000
H          0.60597        1.02087        0.01168
H          0.60593       -0.52053        0.87825
H          0.60593       -0.50030       -0.88993
