13
-1399.24
O          1.02023       -0.08074        0.34701
C          2.21550       -0.00334        0.08706
C          2.90337        1.28234       -0.01007
C          4.19124        1.45107       -0.27849
O          4.62646        2.75844       -0.30821
C          3.40897        3.53114       -0.18213
C          2.26403        2.59345        0.20213
H          2.83509       -0.89771       -0.08816
H          4.95806        0.71551       -0.45651
H          3.21521        4.01687       -1.14592
H          3.56123        4.31291        0.56957
H          1.38666        2.75741       -0.43037
H          1.97548        2.73088        1.24940
