14
-1490.87
C          1.02530        0.01708       -0.14699
C          2.35146        0.00589        0.00484
C          3.23436       -1.21186        0.07543
C          4.60339       -0.67000        0.50232
C          4.44520        0.81472        0.41464
C          3.18604        1.16776        0.14838
H          0.46621       -0.90910       -0.23915
H          0.46360        0.94480       -0.17716
H          3.30715       -1.68475       -0.91172
H          2.86187       -1.95243        0.79019
H          5.39692       -1.02968       -0.16082
H          4.84455       -0.96778        1.52808
H          5.25598        1.51111        0.57810
H          2.82875        2.18530        0.06656
