14
-1412.8
N          0.95328        0.31849       -0.02370
C          2.18611        0.16756       -0.57774
O          2.43462       -0.66682       -1.43499
C          3.21836        1.08169       -0.04791
C          4.18976        1.75976       -0.98541
C          3.11503        2.56096       -0.31910
O          3.54429        3.41264        0.75236
H          0.77205        0.98307        0.71577
H          0.21664       -0.30402       -0.32392
H          3.62378        0.77457        0.91040
H          4.09526        1.55741       -2.04681
H          5.21135        1.87554       -0.64615
H          2.29635        2.90990       -0.94268
H          3.95449        4.22629        0.40944
