17
-1634.6
C          1.34915        2.87958       -0.56139
O          2.62652        2.82495        0.05879
C          3.30159        1.60321       -0.23978
C          4.62461        1.62133        0.44527
O          5.70566        1.04151       -0.30163
C          5.75531        2.45857       -0.08925
C          6.85185        2.91677        0.80326
H          0.90109        3.85172       -0.34002
H          0.69911        2.09542       -0.16246
H          1.44176        2.77745       -1.64682
H          3.41985        1.50633       -1.32573
H          2.71035        0.75651        0.12673
H          4.56213        1.43121        1.50759
H          5.57169        3.12084       -0.92451
H          7.10873        2.16598        1.55825
H          6.55637        3.83424        1.32195
H          7.75123        3.13062        0.21712
