19
-1908.23
C          0.80632        0.57193       -0.97169
C          2.29315        0.70052       -0.89800
C          2.93761        1.45191        0.00903
C          4.43369        1.58701        0.07832
C          4.88393        3.02000       -0.09312
C          4.64753        3.64524       -1.44101
C          5.49643        3.69527        0.89421
H          0.51464       -0.47230       -0.82421
H          0.45472        0.89182       -1.95695
H          0.30001        1.17960       -0.21514
H          2.86022        0.14383       -1.64089
H          2.37098        2.00544        0.75387
H          4.92322        0.96728       -0.68304
H          4.76239        1.19345        1.04833
H          5.10321        3.03583       -2.22808
H          5.07982        4.64940       -1.50814
H          3.57567        3.73395       -1.64416
H          5.68123        3.24179        1.86404
H          5.82979        4.71965        0.76071
