20
-1931.49
C          1.96261       -0.32164       -1.44407
C          2.38434        0.10012       -0.04420
C          3.17396        1.40974       -0.03424
C          2.38697        2.62119       -0.52266
C          3.09458        3.76945        0.16576
N          3.33844        3.24502        1.50630
C          3.64304        1.81755        1.36616
H          1.45069       -1.28849       -1.40762
H          2.83175       -0.42313       -2.10156
H          1.27543        0.40395       -1.88963
H          3.00131       -0.69497        0.39175
H          1.49176        0.19046        0.58674
H          4.06128        1.29578       -0.67283
H          1.33883        2.56835       -0.20196
H          2.40892        2.71903       -1.61250
H          4.04276        3.99995       -0.33347
H          2.48253        4.67466        0.19304
H          4.10402        3.74024        1.96028
H          4.71990        1.64255        1.46810
H          3.13565        1.25994        2.15966
