13
-1340.19
N          1.06077       -0.30145       -0.11360
C          2.40698       -0.03976       -0.07520
C          3.05352        1.13799        0.00000
C          2.36001        2.46916        0.01634
O          2.36016        3.01008        1.33134
C          4.45952        1.13799        0.00000
N          5.61053        1.13799        0.00000
H          0.79359       -1.22998        0.21219
H          0.43758        0.43143        0.21494
H          2.98498       -0.96568       -0.12639
H          1.32179        2.40519       -0.32328
H          2.86482        3.17991       -0.64714
H          2.00118        2.33390        1.93059
