22
-2064.75
C          0.94164        1.48653        0.98048
C          2.42733        1.76677        1.15870
C          3.24009        1.23113       -0.02692
C          4.76772        1.47212        0.05290
C          5.38665        0.80058        1.28651
C          5.43143        0.90602       -1.21412
N          5.04634        2.91153        0.12088
H          0.37854        1.87033        1.83700
H          0.75202        0.41111        0.90420
H          0.55647        1.96929        0.07661
H          2.75729        1.29771        2.09190
H          2.57181        2.84703        1.26488
H          2.85043        1.68527       -0.94905
H          3.05447        0.15259       -0.11878
H          5.02378        1.24222        2.22093
H          6.47896        0.89809        1.28798
H          5.15136       -0.26951        1.30894
H          5.03929        1.38336       -2.11983
H          5.25116       -0.17148       -1.30303
H          6.51714        1.05880       -1.20219
H          4.68874        3.37336       -0.71461
H          6.05320        3.07145        0.12501
