14
-1427.02
C          1.00680       -0.08171        0.00026
C          2.50021        0.02524       -0.28796
C          2.90462       -0.88052       -1.42867
O          2.30554       -1.91003       -1.72933
C          2.88506        1.46312       -0.55966
N          2.87058        2.29189        0.52428
O          3.21251        1.88711       -1.66182
H          0.70777        0.56813        0.82908
H          0.72901       -1.10823        0.26314
H          0.41603        0.20710       -0.87690
H          3.07338       -0.30883        0.58604
H          3.86439       -0.63611       -1.91876
H          2.64670        1.98772        1.46185
H          3.13311        3.25928        0.38048
