19
-1891.5
C          2.82271       -0.90170       -1.04041
C          2.46900        0.00206        0.13545
C          3.02739        1.43282        0.00000
C          2.47570        2.30586        1.14627
C          2.91183        3.76600        1.07154
C          4.47139        1.43282        0.00000
C          5.66155        1.43282        0.00000
H          2.33398       -1.87423       -0.92463
H          3.90116       -1.07860       -1.10105
H          2.48893       -0.46455       -1.98581
H          2.83148       -0.46319        1.06162
H          1.37521        0.04701        0.21047
H          2.66716        1.85286       -0.94825
H          2.78070        1.89616        2.11922
H          1.37892        2.27694        1.12237
H          3.98747        3.87082        1.24247
H          2.39862        4.34956        1.84143
H          2.67136        4.19955        0.09756
H          6.72719        1.43279        0.00018
