15
-1486.42
N          0.91283       -0.01447       -0.37543
C          2.31975        0.03321        0.02071
C          3.29798       -0.81417       -0.73896
C          3.33169        0.68688       -0.89013
C          4.38377        1.56383       -0.31754
N          5.22521        1.03306        0.61405
O          4.48183        2.73154       -0.66787
H          0.44748        0.86891       -0.16287
H          0.40854       -0.73146        0.14592
H          2.48375        0.13524        1.09155
H          2.93286       -1.38698       -1.58577
H          4.07225       -1.32713       -0.18557
H          2.95835        1.06462       -1.83895
H          5.16858        0.08463        0.94770
H          5.93454        1.64363        0.99667
