13
-1465.04
C          1.00000        0.00000        0.00000
C          2.44400        0.00000        0.00000
C          3.63416        0.00000        0.00000
C          5.00216        0.00000        0.00000
C          6.19232        0.00000        0.00000
C          7.59832        0.00000        0.00000
C          8.30191        1.13803       -0.00000
H          0.60593        1.02085        0.01168
H          0.60592       -0.52054        0.87824
H          0.60592       -0.50031       -0.88993
H          8.11257       -0.95660        0.00000
H          7.81774        2.10938       -0.00000
H          9.38606        1.11682       -0.00000
