20
-1858.9
C          1.24638       -0.27793        0.15683
N          2.68797       -0.06963        0.07824
C          3.07493        1.36053        0.12216
C          2.54090        2.09736        1.35407
C          4.62191        1.49945        0.02175
C          5.39690        0.89842        1.19311
O          5.07640        0.87973       -1.19029
H          1.02786       -1.33717       -0.01200
H          0.71181        0.29911       -0.60396
H          0.85573       -0.02832        1.14744
H          3.00277       -0.43774       -0.82104
H          2.65389        1.83778       -0.77334
H          2.78754        1.57200        2.28261
H          1.45212        2.20820        1.31000
H          2.96153        3.10718        1.41356
H          4.87662        2.56227       -0.05990
H          5.21021       -0.17644        1.28841
H          5.14551        1.38385        2.13972
H          6.47399        1.01064        1.02703
H          5.06592       -0.07953       -1.02693
