12
-1269.43
C          1.00000        0.00000        0.00000
C          2.19016        0.00000        0.00000
C          3.63416        0.00000        0.00000
C          4.24713       -1.22205        0.64712
O          4.54205       -0.84388        2.00045
N          4.68889        0.56406        2.03320
C          4.18108        1.01249        0.93536
H         -0.06632       -0.00095        0.00809
H          4.02539        0.15841       -1.00879
H          5.19496       -1.49257        0.16799
H          3.59493       -2.10059        0.65022
H          4.13319        2.08371        0.69284
