17
-1676.62
C          0.91033       -0.05697        0.29553
C          2.40027       -0.05149       -0.02762
C          2.82022        1.26715       -0.67553
C          4.01689        1.19423       -1.61684
N          4.61915       -0.12118       -1.83046
C          3.92451       -1.14669       -1.51296
N          2.70524       -1.15899       -0.90879
H          0.64740        0.77781        0.95487
H          0.62141       -0.98939        0.79425
H          0.30627        0.02515       -0.61553
H          2.96289       -0.18575        0.90540
H          3.02822        1.99340        0.11886
H          1.97419        1.70027       -1.23152
H          4.79593        1.87089       -1.25374
H          3.71803        1.58784       -2.59791
H          4.31230       -2.15761       -1.71157
H          2.41599       -2.06481       -0.55115
