13
-1320.79
C          0.97648       -0.09188        0.00317
C          2.45541        0.06229        0.00730
C          3.18328        1.24342        0.05163
N          2.74529        2.52030        0.09442
S          4.85934        0.88211        0.04879
C          4.49140       -0.78633       -0.01276
N          3.21652       -1.09840       -0.03449
H          0.46000        0.87248        0.01602
H          0.65563       -0.65976        0.88252
H          0.65766       -0.63464       -0.89266
H          3.40656        3.27453       -0.06675
H          1.78405        2.75448       -0.13247
H          5.26964       -1.53787       -0.03310
