18
-1756.36
C          0.61947        0.31386       -0.75996
C          0.06271        1.28655        0.24445
N          0.16719       -0.13553        0.55177
C          1.27592       -0.43899        1.46050
C          0.71742       -0.57920        2.89775
C          1.59088       -1.84678        3.02295
C          1.49216       -1.97177        1.48625
H         -0.00831        0.02809       -1.59544
H          1.68266        0.32821       -0.96574
H         -0.94231        1.65966        0.08973
H          0.74021        1.97420        0.73490
H          2.19652        0.15291        1.38186
H         -0.35683       -0.78719        2.97991
H          0.97147        0.23342        3.58455
H          2.60616       -1.65058        3.38629
H          1.15766       -2.66947        3.59691
H          2.39691       -2.32992        0.98724
H          0.64270       -2.58465        1.15872
