12
-1262.99
O          1.04752       -0.22565        0.13796
N          2.44698       -0.14949        0.11008
C          2.86483        1.06195       -0.07374
C          2.05010        2.29500       -0.24608
C          2.58138        3.51011       -0.43188
C          4.31269        1.05851       -0.09042
C          5.51400        1.05326       -0.10391
H          0.89700       -1.17913        0.28058
H          0.97422        2.16651       -0.21424
H          3.65165        3.68375       -0.47034
H          1.93640        4.37518       -0.55194
H          6.57900        1.03696       -0.11416
