16
-1601.96
C          0.99167       -0.16080        0.04611
C          2.51013       -0.02142       -0.00107
C          3.02739        1.43282        0.00000
C          2.51179        2.22529       -1.20392
O          2.52366        2.09122        1.17526
C          4.47139        1.43282        0.00000
N          5.62240        1.43282        0.00000
H          0.71765       -1.21845        0.11860
H          0.52502        0.23771       -0.85866
H          0.56889        0.35391        0.91346
H          2.88717       -0.55768       -0.88259
H          2.91082       -0.54656        0.87791
H          2.78275        1.74703       -2.15183
H          2.92743        3.24093       -1.20953
H          1.42381        2.34799       -1.17057
H          2.95585        1.68715        1.94896
