17
-1637.29
N          1.01719       -0.02902       -0.06135
C          2.47651       -0.08945       -0.05430
C          3.17596       -0.76079       -1.19277
C          3.25781        0.74136       -1.04989
C          4.53119        1.47796       -0.65209
C          5.91946        1.01829       -1.03361
N          5.30114        2.14625       -1.70735
H          0.68244        0.75157        0.50241
H          0.61677       -0.87174        0.34941
H          2.92108       -0.22015        0.93002
H          2.58312       -1.14923       -2.01310
H          4.05358       -1.35303       -0.96647
H          2.64869        1.30092       -1.76244
H          4.44958        2.05159        0.26931
H          6.02704        0.11885       -1.62605
H          6.74020        1.23701       -0.36321
H          5.67504        3.03351       -1.36849
