14
-1379.28
C          0.86425        0.12524        0.11782
C          2.37276        0.03010        0.06212
C          3.17953        1.06511        0.88411
C          3.92799       -0.17688        1.40713
O          5.02645       -0.41647        1.85017
N          2.88907       -0.98555        1.00839
O          3.33445       -2.16473        0.36796
H          0.40420       -0.75888       -0.33615
H          0.51693        1.00228       -0.43781
H          0.49456        0.21019        1.14529
H          2.75250       -0.11341       -0.95831
H          2.63592        1.60734        1.66311
H          3.79068        1.75171        0.29467
H          3.17417       -2.82458        1.06744
