15
-1525.59
C          0.98462       -0.01326        0.12518
C          2.48686        0.07899       -0.07607
O          2.78095        0.20999       -1.48921
C          3.21216        1.11051        0.83876
C          4.14175        0.02418        1.42013
C          3.31364       -1.02092        0.66376
O          3.34404       -2.23545        0.61006
H          0.72610       -0.11435        1.18519
H          0.57132       -0.87895       -0.40279
H          0.48618        0.88410       -0.25625
H          3.45458       -0.46794       -1.68300
H          2.57088        1.58732        1.58898
H          3.74155        1.90203        0.29725
H          5.17744        0.07518        1.07347
H          4.11290       -0.08183        2.50613
