17
-1578.06
C          1.90846       -0.26258        1.50635
C          2.09856        0.29236        0.10711
C          2.91868        1.56721        0.14866
C          2.17005        2.87677        0.37413
N          1.81099        3.44180       -0.92973
N          4.20723        1.46713       -0.02233
O          4.83759        2.71442        0.02052
H          1.32295       -1.18642        1.47386
H          1.38442        0.45245        2.14871
H          2.87316       -0.48406        1.97488
H          1.12851        0.50298       -0.35477
H          2.61236       -0.44460       -0.51988
H          2.78439        3.58089        0.94239
H          1.26197        2.68266        0.95257
H          2.67924        3.57664       -1.45371
H          1.42767        4.37509       -0.78869
H          5.77464        2.47631       -0.11375
