16
-1582.8
O          1.04901        0.14280        0.20834
C          2.45362       -0.01687        0.05050
C          2.76751       -1.42829       -0.41904
C          2.75449       -1.32720       -1.94360
N          3.24056        0.02791       -2.27765
C          2.18462        1.03353       -2.34185
C          2.96107        0.84165       -1.06823
H          0.89423        1.07823        0.42808
H          2.94041        0.20371        1.00535
H          2.05566       -2.17473       -0.05436
H          3.77542       -1.70906       -0.09046
H          3.41798       -2.08051       -2.38184
H          1.74918       -1.50787       -2.34381
H          2.40665        1.90653       -2.94449
H          1.15508        0.70002       -2.39914
H          3.73415        1.54334       -0.78953
