17
-1662.97
C          1.02282        0.07300        0.03514
C          2.52173        0.01500       -0.11705
N          3.15611        1.13884       -0.28970
N          4.50035        1.07930       -0.42249
C          5.25924        0.01631        0.22227
C          4.67420       -1.30038       -0.25237
C          3.18601       -1.33890        0.04662
H          0.58754       -0.92465       -0.06086
H          0.59725        0.72337       -0.73393
H          0.78012        0.47579        1.02241
H          4.91821        1.99311       -0.23692
H          6.31371        0.08410       -0.06394
H          5.19757        0.10751        1.31272
H          5.17998       -2.14468        0.22893
H          4.83364       -1.40751       -1.33332
H          3.02225       -1.65445        1.08371
H          2.68801       -2.06658       -0.60270
