14
-1458.68
O          1.67472        0.10502        1.38679
C          2.44984       -0.01284        0.44629
C          2.95528       -1.32958       -0.07304
C          3.89278       -0.91812       -1.16084
C          5.11162       -0.08335       -0.86356
N          3.89569        0.53856       -1.38796
C          3.03431        1.14382       -0.34303
H          2.11865       -1.90907       -0.47117
H          3.47335       -1.87828        0.71722
H          3.88989       -1.55577       -2.03434
H          5.39447        0.11336        0.16387
H          5.94407       -0.13714       -1.55633
H          3.60498        1.80429        0.31647
H          2.21907        1.69425       -0.81997
