13
-1316.
N          0.87166        0.07974        0.11774
C          2.22635        0.02521        0.08136
C          3.10523        1.08548       -0.02854
N          2.71506        2.38120       -0.07113
C          4.46187        0.67448       -0.08484
C          4.58313       -0.69506        0.00715
S          3.06196       -1.46628        0.15595
H          0.43562        0.87489       -0.33984
H          0.37787       -0.78937       -0.05846
H          3.39535        3.11688        0.09281
H          1.80058        2.61530        0.30563
H          5.31076        1.33797       -0.18051
H          5.49042       -1.28246       -0.00275
