20
-1851.51
C          1.95906        3.08899       -1.81604
C          2.81168        1.94087       -1.31419
O          3.93287        2.47929       -0.61624
C          4.75914        1.44007       -0.07644
C          5.95238        2.06760        0.65635
N          5.49820        2.82842        1.82938
C          6.60433        3.53507        2.45681
H          1.09334        2.71757       -2.37145
H          2.54201        3.74743       -2.46806
H          1.60568        3.69992       -0.97912
H          3.16107        1.33876       -2.16055
H          2.22296        1.30758       -0.64142
H          5.12812        0.81324       -0.89589
H          4.17285        0.81817        0.60934
H          6.48027        2.73564       -0.03535
H          6.63805        1.27396        0.97288
H          4.79682        3.49972        1.50523
H          7.07360        4.24533        1.76867
H          7.36329        2.83435        2.81990
H          6.23592        4.09706        3.32043
