18
-1761.46
C          2.84069       -0.86483       -1.11839
C          2.47332       -0.00505        0.08657
C          3.02739        1.43282        0.00000
C          2.50503        2.30950        1.16405
N          1.05098        2.48667        1.14720
C          4.47139        1.43282        0.00000
C          5.66155        1.43282        0.00000
H          2.35924       -1.84547       -1.04064
H          3.92036       -1.03104       -1.18241
H          2.50665       -0.39743       -2.05114
H          2.83548       -0.49829        0.99767
H          1.37949        0.02084        0.15382
H          2.67763        1.87821       -0.94138
H          2.97155        3.30098        1.12003
H          2.79225        1.86640        2.12461
H          0.77545        2.96477        0.28955
H          0.78105        3.10210        1.91399
H          6.72736        1.42905       -0.00148
