16
-1600.79
C          0.88963       -0.51538       -0.80660
N          2.02322       -0.53952        0.10628
C          2.52640       -1.85702        0.46102
C          2.76208        0.56958        0.49697
O          3.71727        0.49971        1.26801
C          2.36999        1.88799       -0.07869
C          2.84368        3.02520        0.44821
H          0.27921        0.37645       -0.65076
H          0.25661       -1.39087       -0.63501
H          1.26746       -0.53155       -1.83277
H          1.70486       -2.45794        0.86217
H          3.32152       -1.81176        1.20969
H          2.92010       -2.33268       -0.44234
H          1.73602        1.92450       -0.95210
H          3.50434        3.01842        1.31105
H          2.58436        3.98788        0.02221
