16
-1608.42
C          1.05507       -0.12547       -0.02350
N          2.49527        0.00436        0.15424
C          2.96070        1.38568        0.00000
C          2.48900        2.24100        1.14810
C          1.75713        3.35721        1.02914
C          4.40470        1.38568        0.00000
C          5.59486        1.38568        0.00000
H          0.78246       -1.18529        0.01820
H          0.72754        0.26498       -0.99259
H          0.49955        0.37712        0.77482
H          2.96453       -0.56316       -0.54954
H          2.60528        1.79045       -0.95636
H          2.76994        1.90181        2.14401
H          1.44509        3.73720        0.06242
H          1.45307        3.91385        1.91169
H          6.66009        1.38400        0.00858
