15
-1426.54
O          1.43557        0.48539        1.79343
N          2.71878        0.41694        1.23582
C          2.81143        1.30676        0.30070
C          4.07865        1.47291       -0.48880
C          4.71418        2.80317       -0.22870
C          5.40877        3.54455       -1.34283
N          4.12806        4.00674       -0.81451
H          1.45944       -0.22214        2.46391
H          1.97135        1.97699        0.04612
H          3.82300        1.35346       -1.54748
H          4.78300        0.67615       -0.22288
H          5.10779        2.89119        0.77799
H          5.38188        3.13687       -2.34591
H          6.27695        4.14709       -1.10744
H          4.25897        4.81269       -0.19825
