13
-1330.92
C          1.02631       -0.06233        0.00605
C          2.50270        0.09037       -0.01488
C          3.21466        1.27419        0.00795
S          4.89471        0.94598       -0.03264
C          4.55511       -0.73539       -0.08631
N          5.53745       -1.64863       -0.12960
N          3.28460       -1.05207       -0.06150
H          0.52370        0.90952        0.02312
H          0.71716       -0.62317        0.89321
H          0.68994       -0.60543       -0.88227
H          2.83931        2.28654        0.04483
H          5.26222       -2.59237        0.11462
H          6.45147       -1.37619        0.20618
