17
-1619.37
C          0.61683        0.34310       -0.77138
C          0.03307        1.26575        0.26568
N          0.17147       -0.16518        0.52164
C          1.28743       -0.47502        1.42537
C          0.74983       -0.71513        2.85391
N          1.60874       -1.93090        2.92662
C          1.53796       -1.99880        1.43870
H         -0.00159        0.07461       -1.61983
H          1.68009        0.39304       -0.97313
H         -0.97944        1.61948        0.11901
H          0.69245        1.95160        0.78138
H          2.19410        0.14139        1.37146
H         -0.31958       -0.94431        2.94267
H          0.99964        0.05908        3.58568
H          2.54818       -1.73650        3.27305
H          2.46414       -2.32707        0.95705
H          0.71736       -2.63389        1.08145
