15
-1449.87
C          2.52647       -1.03887        1.39157
C          2.14025       -0.15744        0.23233
O          1.07331       -0.29635       -0.36596
N          3.01407        0.84165       -0.12926
N          4.32259        0.88855        0.34433
C          4.90082        2.18721        0.00406
C          4.38642        1.91429        1.38654
H          3.44086       -1.59182        1.16037
H          1.72600       -1.76119        1.57853
H          2.66419       -0.43696        2.29393
H          2.76627        1.31320       -0.99319
H          4.34899        2.87561       -0.62426
H          5.97398        2.19532       -0.14511
H          5.10895        1.73460        2.17312
H          3.47044        2.39693        1.70642
