12
-1312.81
C          2.67277       -1.16749        0.38316
C          2.21373        0.07167        0.16330
C          3.00836        1.24726        0.07172
C          2.53113        2.51414       -0.15375
O          3.56522        3.39329       -0.18058
N          4.75356        2.71114        0.02919
C          4.40150        1.43046        0.17780
H          1.98433       -2.00609        0.43698
H          3.72670       -1.38911        0.51464
H          1.13734        0.19115        0.04449
H          1.55293        2.94430       -0.30771
H          5.17703        0.69932        0.35542
