20
-1854.62
C          2.94658       -0.90086       -0.90321
C          2.46605        0.01227        0.21596
C          2.97593        1.46014        0.08175
N          2.39636        2.27517        1.16595
C          4.51470        1.57439        0.12841
O          5.01558        0.96876        1.32726
C          6.43070        1.07056        1.40986
H          2.47815       -1.88606       -0.80976
H          4.02983       -1.04654       -0.86643
H          2.68282       -0.49260       -1.88360
H          2.76440       -0.41685        1.18039
H          1.36802        0.01364        0.20248
H          2.62568        1.87676       -0.86880
H          2.86049        1.99955        2.03528
H          1.41277        2.04125        1.28669
H          4.81209        2.63055        0.10308
H          4.95944        1.07886       -0.74315
H          6.75455        0.60532        2.34429
H          6.74069        2.11965        1.41576
H          6.90066        0.54232        0.57512
