14
-1482.75
C          0.97611       -0.10062       -0.00248
C          2.48489        0.07680        0.01152
C          2.86127        1.51136       -0.00014
N          3.09937        2.31271        1.01901
C          3.39446        3.51354        0.42615
C          3.32298        3.39082       -0.93788
O          2.98028        2.10547       -1.22787
H          0.71854       -1.16421        0.01284
H          0.53347        0.34396       -0.90029
H          0.51369        0.37434        0.86951
H          2.92429       -0.43066       -0.85478
H          2.90047       -0.39922        0.90702
H          3.63952        4.39110        1.00767
H          3.47100        4.05371       -1.77704
