14
-1423.95
C          0.97644        0.10938       -0.12566
C          2.44714       -0.10125        0.04638
C          3.09578       -1.27657        0.01107
N          2.59224       -2.52976       -0.23165
C          3.22241        1.13219        0.32167
O          4.31687        1.25093       -0.45922
O          2.87002        1.98158        1.12104
H          0.78803        0.86168       -0.89917
H          0.52701        0.45718        0.81038
H          0.45347       -0.80244       -0.42737
H          4.17014       -1.31697        0.19763
H          1.58568       -2.61931       -0.10997
H          3.09881       -3.27983        0.23715
H          4.37487        0.56513       -1.15183
