19
-1799.97
C          1.03465        0.01821        0.00653
N          2.48600        0.00786        0.09415
C          3.01237        1.08820        0.93007
C          4.44962        0.64777        1.14486
C          4.30884       -0.85066        1.39487
N          5.50770       -1.59000        1.00371
C          3.01685       -1.24470        0.64638
H          0.68529       -0.79476       -0.63914
H          0.68596        0.95470       -0.44197
H          0.55717       -0.09140        0.98669
H          2.48614        1.15703        1.89085
H          2.96013        2.05802        0.42547
H          5.04314        0.85245        0.24358
H          4.92221        1.16418        1.98535
H          4.14801       -1.01078        2.46877
H          5.68669       -1.42089        0.01287
H          5.33080       -2.59019        1.08308
H          3.20476       -1.95886       -0.16345
H          2.32681       -1.71807        1.35569
