14
-1368.78
C          0.25055       -0.55217        0.08459
C          1.73462       -0.24649        0.09196
O          1.90643        1.16114        0.25615
N          3.28001        1.44254        0.30225
C          3.43026        2.71779        0.42741
C          4.81016        3.28325        0.50471
O          4.96562        4.49012        0.60353
H          0.07311       -1.62348       -0.04579
H         -0.25155       -0.00946       -0.72333
H         -0.21415       -0.22863        1.02205
H          2.18815       -0.56041       -0.85442
H          2.22239       -0.77482        0.91841
H          2.60857        3.44974        0.48370
H          5.62516        2.54429        0.46738
