15
-1588.03
C          1.00739        0.00850        0.14584
C          2.48164        0.03410       -0.02756
C          3.28826       -0.99977       -0.26367
O          4.63416       -0.71886       -0.39086
C          4.70612        0.72123       -0.24129
C          3.30878        1.20844        0.03169
C          2.93362        2.46680        0.28497
H          0.61272       -1.00960        0.05792
H          0.51754        0.62122       -0.61837
H          0.72485        0.39042        1.13230
H          3.03543       -2.04154       -0.36795
H          5.10286        1.13943       -1.17274
H          5.38576        0.94677        0.58687
H          3.66135        3.27167        0.30803
H          1.89892        2.72866        0.47903
