17
-1792.26
C          0.94638        0.06026       -0.00496
C          2.42916        0.03751       -0.00028
C          3.27764        1.07996       -0.00291
C          4.63459        0.59187        0.00392
C          4.62656       -0.75017        0.01096
C          5.78519       -1.67573        0.01984
C          3.20703       -1.25121        0.00907
H          0.56088        1.08488       -0.00284
H          0.55436       -0.44966        0.88039
H          0.56015       -0.44422       -0.89594
H          3.01214        2.12632       -0.00918
H          5.50467        1.23052        0.00360
H          6.73444       -1.13039        0.01609
H          5.76378       -2.32206       -0.86296
H          5.76205       -2.30720        0.91329
H          2.99815       -1.84623       -0.88544
H          2.99242       -1.83653        0.90865
