17
-1720.37
C          1.02680       -0.01451        0.02657
C          2.54175        0.00146        0.09742
C          3.09600        1.19376        0.85919
C          4.43210        0.65277        1.23731
C          5.56360        1.36036        1.34849
C          4.30649       -0.83418        1.34070
O          3.00542       -1.15537        0.81430
H          0.68175       -0.90071       -0.51699
H          0.64348        0.87726       -0.47825
H          0.58591       -0.07124        1.02787
H          2.95805       -0.04152       -0.91776
H          2.51629        1.39268        1.76787
H          3.13359        2.09801        0.24595
H          6.50862        0.87951        1.58033
H          5.57096        2.43729        1.21007
H          5.06261       -1.35615        0.74652
H          4.34388       -1.17541        2.37918
