19
-1850.01
C          0.98161       -0.33455        0.26300
C          2.49347       -0.31437        0.09546
C          3.01812        1.11304       -0.06111
C          4.51238        1.13192       -0.22315
C          5.14156        1.63089       -1.29908
C          6.62392        1.67111       -1.46770
O          6.96125        0.93239       -2.63009
H          0.62702       -1.36323        0.37937
H          0.48510        0.09935       -0.61034
H          0.67795        0.23206        1.14861
H          2.76538       -0.91431       -0.78190
H          2.95635       -0.79244        0.96783
H          2.75849        1.70289        0.82535
H          2.52984        1.59306       -0.91773
H          5.09386        0.72379        0.60301
H          4.56277        2.05010       -2.11886
H          7.15711        1.24205       -0.61356
H          6.96204        2.70334       -1.60219
H          6.55323        0.05546       -2.53012
