15
-1490.72
C          1.00000        0.00000        0.00000
C          2.44400        0.00000        0.00000
C          3.63416        0.00000        0.00000
C          5.07348       -0.06765       -0.03807
C          5.74836       -1.40264       -0.06794
N          5.61347        1.11184       -0.05031
N          6.96858        1.13567       -0.09072
H          0.60595        1.02085        0.01167
H          0.60597       -0.52056        0.87825
H          0.60598       -0.50033       -0.88993
H          5.01320       -2.21237       -0.07023
H          6.38703       -1.51153        0.81309
H          6.36326       -1.48516       -0.96860
H          7.27948        2.09896       -0.24250
H          7.36438        0.87387        0.81558
