14
-1345.32
C          2.75167        3.10301       -1.12676
C          2.26307        1.97733       -0.59652
O          2.92923        0.92095       -0.04465
C          4.36083        0.95073       -0.04127
O          4.89012        1.88275        0.90826
N          6.29540        1.84792        0.84819
C          6.76306        2.63176        1.75919
H          2.07484        3.85149       -1.52773
H          3.81138        3.32612       -1.17174
H          1.19559        1.78559       -0.55130
H          4.74673        1.15611       -1.04817
H          4.69336       -0.05297        0.24533
H          7.85144        2.74512        1.87961
H          6.11969        3.20887        2.44447
