13
-1324.32
C          0.91810       -0.10063        0.02699
C          2.43236        0.02686       -0.02160
C          2.86194        1.45386       -0.03203
N          3.04076        2.21389        1.02933
C          3.43673        3.46712        0.59270
N          3.57261        3.71708       -0.70848
S          3.18415        2.29635       -1.49725
H          0.62694       -1.15486        0.05511
H          0.45198        0.35766       -0.85133
H          0.50838        0.38905        0.91800
H          2.81796       -0.50242       -0.90157
H          2.86437       -0.46801        0.85606
H          3.64055        4.25814        1.30384
