15
-1531.9
C          1.83142       -0.34340        0.18013
C          0.96768       -1.53688        0.63716
C         -0.12874       -1.08950       -0.35404
N         -1.39732       -0.77197        0.32088
C         -1.30759        0.48069        0.63180
N         -0.15935        1.16134        0.34422
C          0.60090        0.27898       -0.49618
H          2.61438       -0.62583       -0.53272
H          2.28994        0.23927        0.98403
H          1.40070       -2.52134        0.43467
H          0.68499       -1.49294        1.69600
H         -0.22091       -1.67563       -1.27151
H         -2.10499        1.06464        1.11926
H         -0.25619        2.12603        0.05202
H          0.73109        0.65988       -1.51194
