16
-1550.18
C          0.89511        0.03406        0.05047
C          2.40709       -0.02277        0.00632
C          3.16782        0.95762        0.90878
O          4.02334       -0.11155        1.39388
C          3.08844       -1.09969        0.87518
C          3.81280       -2.21200        0.14726
H          0.46357       -0.81624       -0.48757
H          0.53067        0.95105       -0.42326
H          0.51680        0.01098        1.07785
H          2.77505       -0.00131       -1.02690
H          2.60034        1.40687        1.73077
H          3.73653        1.72958        0.38453
H          2.46522       -1.48662        1.69308
H          4.48426       -1.82005       -0.62323
H          3.09653       -2.88366       -0.33565
H          4.41056       -2.80529        0.84682
