13
-1249.87
C          0.93517       -0.00959        0.04335
C          2.44792        0.02159        0.00381
C          3.14412        1.01435        0.94136
O          4.00730       -0.02916        1.45857
C          3.18414       -1.04117        0.82987
H          0.55355       -0.86910       -0.51729
H          0.52050        0.89677       -0.40873
H          0.55689       -0.07974        1.06815
H          2.82400        0.08474       -1.02527
H          2.52984        1.44520        1.73842
H          3.71334        1.80449        0.44394
H          3.78086       -1.75026        0.25011
H          2.58750       -1.57897        1.57328
