15
-1449.59
C          2.28630       -0.01672        1.74543
C          2.45647        0.18819        0.24836
N          3.02934        1.49014       -0.07003
C          2.14545        2.63690       -0.14347
C          4.40159        1.64837       -0.08193
O          5.22606        0.76358        0.10543
H          1.87043       -1.00851        1.94783
H          1.60967        0.72990        2.17299
H          3.24576        0.06502        2.26656
H          1.49333        0.09540       -0.26527
H          3.11477       -0.59448       -0.14571
H          1.36739        2.44001       -0.88623
H          2.69495        3.53769       -0.43074
H          1.68782        2.79964        0.83611
H          4.71195        2.68420       -0.29806
