13
-1321.91
O          1.85509        0.00523       -0.91457
C          2.57700       -0.01583        0.31403
C          3.41724        1.21505        0.43705
N          3.89364        1.90389       -0.76357
C          2.86638        2.57064        0.05809
C          3.20707        3.69850        0.88167
N          3.45295        4.59960        1.56988
H          1.39346       -0.84948       -0.98063
H          3.21333       -0.90636        0.32674
H          1.86375       -0.07445        1.14158
H          4.12279        1.15023        1.25759
H          3.44504        1.47611       -1.58179
H          1.88105        2.61478       -0.39389
