14
-1480.15
C          1.03678       -0.08780       -0.00601
C          2.49815        0.11227        0.00079
C          3.30811        1.22807        0.00574
C          4.64180        0.74967        0.00732
C          4.55604       -0.61975        0.00061
N          5.47356       -1.58770       -0.00865
O          3.26117       -1.01775       -0.00046
H          0.50929        0.87098        0.00281
H          0.72394       -0.65715        0.87429
H          0.72995       -0.63740       -0.90077
H          2.97782        2.25743        0.00576
H          5.55096        1.33315        0.00921
H          5.18636       -2.55843        0.03776
H          6.46703       -1.40538        0.04829
