12
-1281.82
C          2.14822        0.67739        0.97423
C          2.34880        0.00066       -0.41424
C          2.96121        1.27516       -0.83395
N          3.53165        1.92936       -1.81434
S          3.89195        3.45888       -1.14338
C          3.24687        3.12679        0.45644
C          2.78676        1.86058        0.38805
H          2.68572        0.27211        1.83867
H          1.12605        0.86020        1.32411
H          1.46418       -0.27055       -1.00034
H          3.02998       -0.85364       -0.49018
H          3.26698        3.85562        1.25282
