18
-1709.71
C          1.55986       -0.49080       -0.63508
C          2.91295       -0.49224        0.05622
C          3.66841        0.80926       -0.19018
C          5.00826        0.77874        0.51723
C          5.05140        1.18302        1.97141
N          6.04226        0.35814       -0.14983
O          7.19236        0.35186        0.64606
H          1.04383       -1.44049       -0.46101
H          1.67076       -0.35819       -1.71644
H          0.92526        0.31551       -0.25302
H          3.50472       -1.34036       -0.30807
H          2.77088       -0.64833        1.13179
H          3.09372        1.66954        0.17111
H          3.83747        0.95429       -1.26398
H          4.08026        1.56688        2.29409
H          5.79968        1.96709        2.11556
H          5.30691        0.31423        2.58369
H          7.86885        0.01205        0.03126
