19
-1850.2
C          1.37175        0.53300        0.31701
C          2.50498        1.54206        0.28605
O          3.68672        0.86649       -0.14049
C          4.87203        1.57133       -0.22099
C          5.99628        0.68249       -0.67805
C          5.01073        2.88482        0.05275
C          6.26832        3.69555        0.01621
H          0.43868        1.00459        0.63740
H          1.60619       -0.28843        1.00206
H          1.22265        0.08975       -0.67302
H          2.64613        1.95442        1.29163
H          2.25501        2.34423       -0.41758
H          5.67977        0.10188       -1.55198
H          6.26451       -0.01974        0.11784
H          6.89546        1.22700       -0.97329
H          4.14597        3.46920        0.35218
H          7.17778        3.09417       -0.03780
H          6.33756        4.29785        0.92841
H          6.24730        4.37768       -0.83914
