19
-1791.28
C          1.11112        0.06318       -0.09518
C          2.59945       -0.17132        0.00442
C          3.02974       -1.60104       -0.19335
N          2.53789       -2.44060        0.88935
C          3.42980        0.87081        0.21903
C          4.91853        0.87012        0.34784
N          5.48809        1.70110       -0.70137
H          0.85257        1.12592       -0.02751
H          0.58133       -0.45458        0.71107
H          0.73255       -0.30462       -1.05491
H          4.11486       -1.70859       -0.25862
H          2.62938       -1.96844       -1.14526
H          2.94062       -2.11413        1.76610
H          2.87605       -3.39091        0.75481
H          2.98899        1.86276        0.33369
H          5.35564       -0.12938        0.29924
H          5.18782        1.28959        1.32335
H          5.26594        1.28751       -1.60540
H          6.50294        1.68702       -0.62420
