15
-1470.63
N          4.35129       -1.42453       -0.29629
C          3.27755       -0.58972       -0.36086
N          2.10139       -1.07604       -0.59683
C          3.36443        0.87901       -0.15811
C          4.52587        1.54249       -0.06252
C          4.61854        3.01812        0.12325
O          5.30312        3.26260        1.34121
H          5.13951       -1.09448        0.24889
H          4.14822       -2.39923       -0.11959
H          2.17223       -2.08269       -0.75302
H          2.40835        1.39159       -0.11371
H          5.47680        1.02612       -0.14824
H          3.63973        3.50682        0.16323
H          5.19340        3.46547       -0.69287
H          4.74656        2.90002        2.05149
