14
-1406.85
N          0.89996        0.26101        0.81454
C          2.15748       -0.38749        0.41140
C          2.97511        0.51300       -0.51402
O          2.49346        1.32025       -1.30210
O          4.30792        0.20340       -0.37080
C          5.19577        0.90972       -1.18218
C          6.51518        0.82490       -1.00409
H          0.27338       -0.43153        1.21875
H          0.43843        0.62591       -0.02228
H          1.94578       -1.31698       -0.12617
H          2.73570       -0.61304        1.31222
H          4.73851        1.51144       -1.95807
H          6.93723        0.21062       -0.21595
H          7.19790        1.37438       -1.64346
