18
-1759.92
C          1.00068       -0.05375        0.00334
C          2.52000        0.00000        0.00000
C          3.00202        1.36117        0.00000
C          3.39930        2.48307        0.00000
C          3.88132        3.84424        0.00000
N          2.75529        4.76744       -0.11931
C          3.20347        6.15040       -0.06072
H          0.65734       -1.09296        0.00331
H          0.58506        0.44193       -0.88065
H          0.58899        0.44058        0.88991
H          2.89539       -0.53276       -0.88091
H          2.89930       -0.53414        0.87840
H          4.57366        3.99074       -0.83701
H          4.43528        4.03772        0.92625
H          2.10473        4.58675        0.64405
H          3.89164        6.37917       -0.88088
H          3.69443        6.37481        0.89185
H          2.34143        6.81739       -0.15940
