17
-1692.18
C          1.18109       -0.57564        0.21377
O          2.48780       -0.16351        0.59172
C          2.74257        1.20615        0.27544
C          2.33493        2.04647        1.45427
C          1.47122        3.07122        1.40672
C          4.22103        1.31375        0.02608
C          4.78121        1.73125       -1.11832
H          1.06825       -1.63268        0.46993
H          1.03927       -0.46511       -0.86602
H          0.42087       -0.00436        0.75504
H          2.19282        1.49816       -0.62937
H          2.77467        1.77444        2.41132
H          0.99876        3.37796        0.47955
H          1.22086        3.62411        2.30663
H          4.86931        1.00410        0.84292
H          4.18221        2.03357       -1.97108
H          5.86112        1.76593       -1.22396
