16
-1551.09
C          2.53566       -0.92237        0.67000
O          2.39118        0.44981        1.01318
C          2.89401        1.33855        0.00000
C          2.33642        2.74913        0.32428
N          2.65062        3.78806       -0.67024
C          4.33801        1.33855        0.00000
C          5.52817        1.33855        0.00000
H          2.04799       -1.51998        1.44543
H          3.59162       -1.20790        0.63438
H          2.05263       -1.13768       -0.28791
H          2.49835        1.02725       -0.97497
H          2.70256        3.07614        1.30658
H          1.24547        2.68437        0.41828
H          3.66556        3.88639       -0.73105
H          2.30419        4.68427       -0.32721
H          6.59383        1.33444        0.00390
