12
-1306.95
C          1.00699        0.13623       -0.61414
C          2.26373       -0.11681       -0.24247
O          3.21506        0.87083       -0.22412
C          4.53906        0.63201        0.14442
C          5.38932        1.66833        0.14218
C          5.00464       -0.66762        0.51483
N          5.38341       -1.72378        0.81639
H          0.26080       -0.65081       -0.62517
H          0.70106        1.13299       -0.91409
H          2.57472       -1.10701        0.05815
H          5.04951        2.66026       -0.13808
H          6.43395        1.55605        0.41611
