15
-1448.29
C          1.03542       -0.04361        0.11809
C          2.54765        0.02739        0.01367
C          3.13720        1.20888        0.75878
C          4.43428        0.59894        1.15811
N          5.38353        1.30350        1.66330
N          4.42179       -0.75343        0.97349
O          3.12424       -1.15168        0.61321
H          0.65939       -0.92685       -0.40943
H          0.56668        0.84673       -0.31181
H          0.71541       -0.14292        1.16111
H          2.84641        0.04389       -1.04251
H          2.57916        1.46454        1.66549
H          3.26127        2.09479        0.13274
H          6.18509        0.69950        1.86541
H          4.85106       -1.32387        1.69531
