14
-1491.09
O          0.88944        0.13757        0.02793
C          2.11700        0.04718        0.02524
C          2.81747       -1.30385        0.04127
C          4.31000       -1.22803        0.03030
C          4.96976       -0.06397       -0.01037
C          4.30965        1.27004       -0.05080
N          2.87287        1.18078        0.01909
H          2.48020       -1.86628       -0.83611
H          2.49372       -1.83479        0.94314
H          4.85932       -2.16493        0.05537
H          6.05690       -0.06963       -0.01915
H          4.63988        1.88396        0.79279
H          4.56426        1.79378       -0.97726
H          2.33263        2.03540        0.00283
