15
-1512.81
C          0.92278       -0.06574        0.06521
C          2.44746        0.02684        0.08647
C          2.93881        1.31689       -0.53276
C          3.89718        1.11745       -1.65555
N          4.29892       -0.01562       -2.12728
N          3.83858       -1.20431       -1.57681
C          3.01107       -1.18896       -0.58424
H          0.47241        0.79545        0.57036
H          0.58046       -0.97135        0.57721
H          0.54061       -0.10362       -0.96038
H          2.76871       -0.01739        1.13386
H          3.44567        1.92824        0.22346
H          2.11516        1.93216       -0.91452
H          4.29673        2.03238       -2.12481
H          2.69664       -2.16503       -0.17784
