19
-1781.92
C          1.82195       -0.69356       -0.69246
N          1.76164        0.60297       -0.03241
C          3.04926        1.30450       -0.05114
C          3.23501        2.45368       -1.00495
C          3.10248        2.71864        0.47311
C          4.27679        3.16011        1.28245
N          4.27079        4.61277        1.34210
H          0.82752       -1.14988       -0.69613
H          2.50452       -1.37188       -0.17011
H          2.14695       -0.59312       -1.73270
H          1.43841        0.47589        0.92671
H          3.92094        0.68474        0.15020
H          2.40197        2.73278       -1.64058
H          4.20486        2.56947       -1.47285
H          2.17376        3.15067        0.83074
H          5.22069        2.80993        0.85043
H          4.19846        2.75245        2.29519
H          4.35150        4.98645        0.39784
H          5.09424        4.93152        1.84871
