20
-1906.86
C          2.13406       -0.44499       -1.34144
N          2.27890        0.14603       -0.01519
C          3.19519        1.28560       -0.08357
C          2.42009        2.55892       -0.49470
C          3.18397        3.29044        0.63232
C          3.31057        1.91303        1.33685
C          4.60635        1.66075        2.08184
H          1.43036       -1.28141       -1.29053
H          3.08884       -0.83015       -1.71371
H          1.73447        0.27570       -2.06178
H          2.58846       -0.57999        0.63155
H          4.14972        1.12308       -0.59783
H          1.33556        2.53526       -0.33179
H          2.61613        2.92663       -1.50550
H          4.13596        3.72583        0.30451
H          2.61416        4.05034        1.17340
H          2.44680        1.71708        1.98930
H          5.48076        1.87327        1.45759
H          4.66732        0.61629        2.40444
H          4.66624        2.29238        2.97399
