16
-1622.77
C          0.84969        0.34130        0.18086
C          2.32594        0.08801        0.04810
C          2.89084       -1.12685       -0.09444
C          2.22058       -2.46140       -0.09836
N          2.46197       -3.12253       -1.37129
C          3.18985        1.22808        0.05719
C          3.91237        2.18660        0.06486
H          0.55217        1.19951       -0.43311
H          0.59663        0.56378        1.22266
H          0.23754       -0.50150       -0.14920
H          3.97595       -1.18327       -0.19472
H          1.14566       -2.40351        0.08767
H          2.64888       -3.06980        0.70571
H          2.01770       -2.58235       -2.11260
H          2.00049       -4.03016       -1.36796
H          4.55650        3.03538        0.07027
