14
-1458.07
O          1.03975        0.38622       -0.78919
C          1.98622        0.31754       -0.00601
C          3.20599        1.23752       -0.03440
N          3.79319        1.31570        1.33314
C          3.48997        2.66930        1.84475
C          3.00089        3.43859        0.67489
C          2.84089        2.63697       -0.37796
H          2.04222       -0.51605        0.71589
H          3.94171        0.81541       -0.72589
H          4.80620        1.26040        1.22579
H          4.38908        3.12411        2.27222
H          2.72044        2.61371        2.62108
H          2.77311        4.49461        0.69574
H          2.45886        2.93733       -1.34371
