17
-1686.62
C          1.00635       -0.24086        0.21571
C          2.41316       -0.24708       -0.38841
C          2.43661       -1.14546       -1.62695
C          2.87574        1.17132       -0.76038
C          3.20807        2.03203        0.43932
O          3.50253        3.30623        0.08753
O          3.24090        1.65479        1.60042
H          0.96818        0.34971        1.13575
H          0.68948       -1.25920        0.46546
H          0.27524        0.17677       -0.48439
H          3.10290       -0.67292        0.35127
H          1.76297       -0.76842       -2.40414
H          2.12630       -2.16469       -1.37433
H          3.44525       -1.19981       -2.04959
H          2.09901        1.67448       -1.34806
H          3.78810        1.11188       -1.36622
H          3.45683        3.46860       -0.87347
