15
-1582.39
C          0.82590       -0.13889       -0.36538
C          2.13857       -0.58356        0.21501
C          2.26932       -1.76482        0.84181
C          3.25163        0.41537        0.07396
O          3.00160        1.59495       -0.15929
C          4.65528       -0.07402        0.17659
C          5.67450        0.79474        0.19491
H          0.45646        0.75163        0.15392
H          0.05668       -0.91403       -0.28034
H          0.93843        0.09709       -1.42884
H          1.42378       -2.44216        0.92888
H          3.18710       -2.09394        1.31494
H          4.84499       -1.13791        0.20979
H          5.50792        1.86800        0.14643
H          6.70086        0.44944        0.25462
