15
-1515.87
O          0.89696        0.03371        0.12261
C          2.33065        0.03453        0.02379
C          3.06296        1.03803        0.93918
C          4.11723       -0.05649        1.22864
C          3.05843       -1.09451        0.78429
C          5.43715       -0.00066        0.42275
O          5.54238       -0.01561       -0.80424
H          0.60609       -0.68012       -0.47101
H          2.64485        0.11583       -1.02430
H          2.48889        1.34365        1.82219
H          3.43578        1.93615        0.43812
H          4.34398       -0.13454        2.30103
H          3.42676       -1.91270        0.15856
H          2.48259       -1.52173        1.61412
H          6.34754        0.04966        1.04304
