22
-2062.9
C          0.96439       -0.10074       -0.00087
C          2.49516        0.01305       -0.04069
C          3.01353       -0.81671       -1.22709
C          3.01747        1.48874       -0.03454
C          2.60728        2.27964       -1.28701
C          2.53167        2.24618        1.21546
N          4.49010        1.47001        0.01030
H          0.54747        0.37359        0.89177
H          0.65991       -1.15314        0.02791
H          0.49985        0.35083       -0.88244
H          2.86811       -0.47619        0.87120
H          2.62191       -0.44899       -2.18056
H          2.70060       -1.86215       -1.12624
H          4.10637       -0.81257       -1.27875
H          2.99312        1.82497       -2.20562
H          2.99185        3.30659       -1.25102
H          1.51858        2.35101       -1.37847
H          2.76787        1.69593        2.13357
H          1.44991        2.41435        1.19029
H          3.00131        3.23460        1.29249
H          4.80395        1.00650        0.86225
H          4.85107        2.42226        0.05551
