16
-1487.82
C          1.14158        0.10694        0.12980
C          2.63341       -0.09586       -0.12416
N          2.83895       -0.73586       -1.42258
C          3.36341        1.22226       -0.12070
C          3.73095        1.89647        1.17891
N          4.75369        1.28168        0.34428
H          0.97489        0.57155        1.10870
H          0.60543       -0.84850        0.11716
H          0.68897        0.76258       -0.62372
H          3.03746       -0.75379        0.65465
H          2.35997       -0.21182       -2.15029
H          2.41591       -1.66113       -1.41085
H          3.10483        1.85899       -0.95961
H          3.51798        1.38885        2.11150
H          3.72592        2.97821        1.22350
H          5.27323        1.97172       -0.19969
