18
-1712.32
C          2.94573       -1.03722       -0.91045
C          2.43313       -0.08519        0.16294
C          3.09393        1.30475        0.10915
N          2.41171        2.20223        1.04639
C          4.57310        1.23646        0.39393
C          5.31167        2.18899        1.30550
O          4.92204        0.87908        1.74263
H          2.38887       -1.97884       -0.87292
H          4.00430       -1.27314       -0.76743
H          2.81722       -0.60779       -1.90955
H          2.58907       -0.54580        1.14638
H          1.34885        0.01822        0.02893
H          2.96444        1.72338       -0.89613
H          2.55746        1.83762        1.99070
H          1.40745        2.16363        0.88655
H          5.13613        0.78325       -0.41204
H          4.79109        3.04055        1.72508
H          6.36595        2.36028        1.12104
