16
-1621.15
N          0.95287        0.19688       -0.05684
C          2.38672       -0.08715        0.01996
C          3.21380        1.19625       -0.13198
C          4.70170        0.93808       -0.04478
C          5.44801        1.42404        0.95953
C          5.34386        0.18416       -1.07507
C          5.87561       -0.45375       -1.93975
H          0.43642       -0.67971        0.01052
H          0.73236        0.58399       -0.97404
H          2.64422       -0.80800       -0.76420
H          2.60079       -0.55951        0.98532
H          2.90787        1.91481        0.64024
H          2.99259        1.67230       -1.09651
H          5.00865        2.01348        1.75812
H          6.51878        1.24805        1.01073
H          6.35059       -1.02134       -2.70728
