15
-1511.32
C          0.82758        0.07603        0.11992
C          2.15990        0.14634        0.23965
C          3.02324        1.36642        0.12507
C          2.35524        2.72716        0.13735
O          3.40198        3.60558        0.55131
C          4.19645        2.80608        1.42951
O          3.88082        1.42095        1.27233
H          0.31718       -0.87730        0.22612
H          0.20906        0.94435       -0.08325
H          2.70411       -0.77665        0.43803
H          3.67318        1.27057       -0.75363
H          1.55156        2.79859        0.87902
H          1.96954        3.02757       -0.84070
H          5.25463        2.96761        1.20382
H          4.00317        3.09999        2.46565
