15
-1537.44
C          1.03421       -0.01070        0.02611
C          2.54842       -0.00135        0.11797
C          3.09312        1.22116        0.83376
C          4.37717        0.64568        1.32647
O          5.32651        1.31578        1.71475
C          4.33610       -0.85744        1.31190
O          2.98630       -1.13180        0.88987
H          0.69005       -0.91743       -0.48282
H          0.66462        0.86039       -0.52280
H          0.57874       -0.02014        1.02238
H          2.98209       -0.09031       -0.88665
H          2.48730        1.50719        1.69835
H          3.24506        2.06575        0.15959
H          5.03706       -1.25954        0.57718
H          4.49175       -1.27475        2.30788
