14
-1366.64
C          1.07956       -0.01358        0.01052
C          2.56962        0.00583        0.03224
N          3.29820       -1.06761        0.04984
N          4.58183       -0.63842        0.12658
C          4.71294        0.75932       -0.26636
C          3.33330        1.29276        0.06512
H          0.71174       -1.03923       -0.07389
H          0.72110        0.56855       -0.84205
H          0.69937        0.43116        0.93406
H          5.23136       -1.25771       -0.35971
H          4.90649        0.83466       -1.34221
H          5.50770        1.27619        0.27781
H          2.96051        2.00054       -0.67839
H          3.27497        1.71886        1.07113
