15
-1464.66
C          1.95299       -0.31619       -1.20697
O          3.19818        0.19296       -0.74812
C          3.22192        1.48245       -0.25618
C          2.17357        2.31438       -0.14371
C          4.58700        1.97662        0.16967
N          4.81950        3.15863        0.81046
N          5.64382        1.25022       -0.04982
H          2.12073       -1.33193       -1.57712
H          1.56429        0.28336       -2.03663
H          1.22751       -0.37165       -0.38887
H          1.16951        2.03249       -0.43461
H          2.28524        3.32866        0.22368
H          4.15352        3.39103        1.53506
H          5.77528        3.17472        1.15410
H          5.33456        0.39163       -0.52897
