19
-1842.96
C          0.83858        1.48648       -0.31843
C          2.20757        1.61839        0.31947
O          3.19160        1.29809       -0.66225
C          4.52578        1.33463       -0.14888
C          5.40469        0.54277       -1.11173
C          4.99035        2.76382       -0.08078
C          5.43409        3.36670        1.03017
H          0.04917        1.72934        0.39867
H          0.68100        0.46672       -0.68533
H          0.74919        2.15370       -1.18228
H          2.28765        0.92871        1.16663
H          2.34717        2.64403        0.67598
H          4.56180        0.84771        0.83388
H          5.35061        0.94964       -2.12838
H          5.05829       -0.49486       -1.17375
H          6.45180        0.53957       -0.79155
H          4.94181        3.33079       -1.00824
H          5.49170        2.84447        1.98039
H          5.74650        4.40661        1.00875
