16
-1629.56
C          1.00000        0.00000        0.00000
C          2.19016        0.00000        0.00000
C          3.63416        0.00000        0.00000
C          4.21355        1.15056        0.80841
C          5.60570        0.65509        1.14513
C          5.44638       -0.85203        1.26663
N          4.14068       -1.18186        0.70055
H         -0.06521       -0.00675        0.00858
H          4.03269        0.02176       -1.02175
H          3.64651        1.32637        1.73260
H          4.23600        2.09024        0.24692
H          6.29237        0.89195        0.32366
H          5.99538        1.11201        2.05943
H          6.25488       -1.37426        0.74464
H          5.46884       -1.16113        2.31680
H          4.19091       -1.97627        0.06758
