18
-1732.59
C          1.06090       -0.63414        0.22260
C          2.57459       -0.48757        0.24489
N          2.94214        0.89641       -0.04896
C          4.39713        1.07287        0.00803
C          4.72838        2.52404       -0.31144
C          4.84495        2.89231       -1.76757
O          4.83395        3.37230        0.57698
H          0.78043       -1.67499        0.41287
H          0.64886       -0.34657       -0.75051
H          0.59097       -0.01234        0.99193
H          3.00820       -1.15930       -0.50475
H          2.94988       -0.78741        1.23028
H          2.51542        1.51495        0.64590
H          4.91025        0.42937       -0.71466
H          4.78933        0.84506        1.00566
H          5.58069        2.24593       -2.25262
H          5.18041        3.92914       -1.85841
H          3.87213        2.78722       -2.25348
