12
-1309.11
O          1.14517        0.02594       -0.46883
C          2.32128        0.00345       -0.14343
C          3.14944       -1.23411        0.04092
C          4.48876       -0.67330        0.50465
C          4.32137        0.81238        0.45999
C          3.10262        1.22286        0.10285
H          3.24442       -1.76248       -0.91159
H          2.70160       -1.88493        0.79608
H          5.30173       -0.99785       -0.15323
H          4.72218       -1.00283        1.52308
H          5.12818        1.49037        0.70771
H          2.71689        2.22144       -0.00103
