16
-1650.66
N          1.64827        0.50623        1.04984
C          2.71592        0.02801        0.16047
C          3.40168        1.05526       -0.70892
C          4.15904        0.42330        0.42234
C          4.93961       -0.80031        0.18243
C          4.19526       -1.85332       -0.18304
C          2.73887       -1.45228       -0.24419
H          0.86777        0.87255        0.50517
H          1.26988       -0.25784        1.61233
H          3.12181        2.09754       -0.59814
H          3.65685        0.78362       -1.72699
H          4.38713        1.00103        1.30796
H          6.01752       -0.82381        0.29612
H          4.56735       -2.84301       -0.40708
H          2.33883       -1.58324       -1.25428
H          2.16036       -2.06547        0.45384
