15
-1413.76
C          1.12932       -0.29182       -0.01548
C          2.63464       -0.13039       -0.10316
S          3.12299        1.57870        0.06459
O          2.60711        2.30365       -1.08101
O          2.79350        1.99731        1.41452
C          4.85611        1.46599       -0.04579
C          5.46556        1.47851       -1.23854
H          0.85356       -1.34577       -0.11617
H          0.62632        0.27025       -0.80834
H          0.74883        0.07090        0.94443
H          2.99635       -0.48908       -1.07181
H          3.12338       -0.69621        0.69640
H          5.40503        1.40282        0.88387
H          4.91146        1.56858       -2.16954
H          6.54756        1.42484       -1.30685
