18
-1781.28
C          1.02390       -0.00106        0.39862
C          2.50702       -0.01745        0.02044
C          2.89864       -1.35290       -0.61157
C          2.66978       -1.12354       -2.07349
C          3.68780       -0.41015       -2.91335
N          2.54719        0.32310       -2.36879
C          2.81949        1.00158       -1.08417
H          0.74470        0.97330        0.81419
H          0.81338       -0.76140        1.15837
H          0.37628       -0.19806       -0.46277
H          3.10090        0.17855        0.92008
H          2.30722       -2.19119       -0.23011
H          3.95666       -1.57289       -0.42758
H          1.92944       -1.76305       -2.53282
H          4.67339       -0.21313       -2.50948
H          3.66615       -0.57683       -3.98416
H          3.86442        1.33138       -1.02348
H          2.19513        1.89680       -0.99555
