19
-1788.4
C          3.10454       -1.13662       -0.51626
C          2.44299        0.08421        0.11642
N          2.03014       -0.20907        1.48613
C          3.38947        1.25015        0.16928
C          3.53562        2.15551       -1.02952
C          2.85670        2.66049        0.21148
N          3.53102        3.66727        1.02891
H          3.41308       -0.91773       -1.54435
H          2.41552       -1.98761       -0.54582
H          4.00068       -1.44238        0.03580
H          1.55029        0.34398       -0.46504
H          2.83296       -0.53172        2.02385
H          1.37109       -0.98626        1.47882
H          4.29196        1.02543        0.72685
H          2.91362        1.97904       -1.89987
H          4.52407        2.52935       -1.26892
H          1.77769        2.78498        0.15605
H          4.53011        3.48158        1.09721
H          3.17794        3.62368        1.98591
