12
-1288.47
C          1.04554       -0.02667       -0.00477
C          2.51640        0.09279       -0.00657
N          3.26131        1.18185       -0.00796
C          4.54480        0.69343       -0.00955
C          4.51818       -0.67796       -0.00910
O          5.40571       -1.65603       -0.00997
O          3.22013       -1.08113       -0.00728
H          0.57778        0.96223        0.00722
H          0.70718       -0.57669        0.87812
H          0.70373       -0.55697       -0.89833
H          5.40021        1.35184       -0.01085
H          6.28197       -1.23821       -0.01119
