21
-1991.34
C          0.91166        1.95769        1.03730
C          2.42705        2.05020        1.13705
C          3.10128        1.49444       -0.11884
C          4.64108        1.52253       -0.05117
C          5.22230        0.71329       -1.21817
C          5.19226        2.95564       -0.06322
O          6.61216        2.95416        0.02206
H          0.44692        2.33925        1.95260
H          0.58739        0.92091        0.89869
H          0.53830        2.55025        0.19532
H          2.76353        1.49091        2.01685
H          2.69986        3.09875        1.29224
H          2.76072        2.05406       -0.99892
H          2.76972        0.45757       -0.25919
H          4.96848        1.02935        0.87353
H          4.94998        1.15735       -2.18113
H          4.84764       -0.31541       -1.20103
H          6.31430        0.66435       -1.16223
H          4.81579        3.54039        0.78026
H          4.91138        3.47482       -0.98509
H          6.85470        2.50171        0.84776
