16
-1481.4
C          1.09529       -0.00765        0.05692
N          2.55162        0.00863       -0.02080
C          3.11335        1.02321        0.91907
C          4.17663       -0.02451        1.33830
N          5.31869        0.03089        0.40746
C          3.13552       -1.05989        0.83739
H          0.70388       -0.86887       -0.49482
H          0.68767        0.89300       -0.41427
H          0.70756       -0.05798        1.08114
H          2.45378        1.31816        1.74655
H          3.48323        1.93550        0.43921
H          4.44759       -0.06374        2.39517
H          4.99857        0.14907       -0.55808
H          5.87314       -0.82316        0.39971
H          3.52677       -1.92369        0.28972
H          2.48428       -1.43311        1.63931
