18
-1696.1
C          1.96548       -0.57476       -1.30556
O          2.22734        0.01255       -0.03922
C          3.09644        1.16987       -0.05350
C          2.50117        2.50576       -0.55598
N          3.08220        3.20865        0.60797
C          4.37372        3.80261        0.26243
C          3.27255        1.90908        1.29186
H          1.31605       -1.44130       -1.15933
H          2.89998       -0.90529       -1.76707
H          1.45891        0.14202       -1.95729
H          4.06103        0.92460       -0.51930
H          1.40482        2.52612       -0.56205
H          2.84684        2.83032       -1.54354
H          4.87015        4.16588        1.16922
H          4.22101        4.66922       -0.39010
H          5.05926        3.11396       -0.24535
H          4.23723        1.75705        1.78815
H          2.48320        1.69173        2.02153
