12
-1240.32
C          0.86560       -0.10744       -0.01043
N          2.30380       -0.00888        0.08899
S          3.09609        1.46234       -0.01869
C          4.69188        0.70602       -0.01866
O          5.76062        1.28828       -0.04423
C          4.51674       -0.75603        0.00777
C          3.21018       -1.03978        0.05056
H          0.37452        0.86991        0.05503
H          0.47531       -0.72722        0.80391
H          0.57669       -0.56880       -0.96052
H          5.34527       -1.43993       -0.01891
H          2.80984       -2.04745        0.06081
