19
-1794.29
C         -1.48268        0.74629        0.13012
C         -1.47233       -0.75762       -0.13589
N         -0.31389       -1.47008        0.39906
C          0.88821       -1.24730       -0.41109
C          1.68750        0.03181       -0.07847
N          0.94351        1.19624        0.41109
C         -0.25025        1.49477       -0.37585
H         -2.37076        1.17271       -0.35294
H         -1.60969        0.92658        1.20628
H         -1.58371       -0.95245       -1.21036
H         -2.36650       -1.18617        0.33259
H         -0.13680       -1.17585        1.35783
H          1.55474       -2.10556       -0.26155
H          0.63525       -1.25580       -1.47837
H          2.42737       -0.21599        0.69291
H          2.26755        0.32560       -0.96290
H          0.68029        1.04300        1.38344
H         -0.44596        2.56784       -0.26705
H         -0.08801        1.32331       -1.44681
