19
-1849.77
C          0.66668        0.51957       -0.62638
C          2.14907        0.64623       -0.76694
C          2.94471        1.20729        0.15429
C          4.43513        1.33472        0.00619
C          4.90844        2.78794        0.01285
C          4.39613        3.59161       -1.17681
O          4.95340        4.90071       -1.14301
H          0.16986        1.02736       -1.45885
H          0.30071        0.95821        0.30729
H          0.37850       -0.53581       -0.64531
H          2.57721        0.25048       -1.68649
H          2.51378        1.59352        1.07707
H          4.78174        0.84098       -0.90994
H          4.90650        0.80512        0.84289
H          6.00588        2.80763        0.00922
H          4.61018        3.28342        0.94589
H          3.30602        3.68567       -1.16862
H          4.69458        3.12422       -2.12013
H          4.63757        5.32903       -0.32906
