18
-1762.25
C          1.16906       -0.59350       -0.14272
C          2.68056       -0.45110       -0.23465
N          3.07426        0.89567        0.16779
C          4.52283        1.06475        0.09910
C          4.88203        2.40989        0.56636
C          5.17337        3.51032        0.94919
C          5.51891        4.85519        1.41069
H          0.86585       -1.59913       -0.45130
H          0.66304        0.12624       -0.79517
H          0.81644       -0.43499        0.88210
H          2.99347       -0.64587       -1.26672
H          3.15089       -1.20096        0.41190
H          2.76893        1.07615        1.12329
H          4.87097        0.93280       -0.93102
H          5.02799        0.31859        0.72499
H          4.62133        5.47081        1.52243
H          6.18483        5.35189        0.69874
H          6.02627        4.81584        2.37924
