15
-1457.02
C          1.10220        1.80851       -1.30421
N          1.55898        1.99064        0.07385
N          2.90434        2.44403        0.10578
C          3.15876        3.79120        0.27320
C          2.23503        4.75319        0.38976
C          3.91691        1.48098        0.07563
O          3.75101        0.26597        0.00669
H          0.06191        1.46836       -1.29798
H          1.69884        1.05792       -1.83338
H          1.13941        2.74886       -1.86403
H          1.55559        1.06937        0.52527
H          4.20948        4.06835        0.31641
H          1.17191        4.53761        0.36463
H          2.52843        5.78862        0.52338
H          4.92536        1.92396        0.13050
