13
-1258.28
C          0.95821        0.01101        0.04601
C          2.45983       -0.04212        0.02686
C          3.12788       -1.20377        0.13798
C          3.16594        1.27323       -0.14480
O          2.91371        2.08969        0.98800
H          0.60543        0.60905        0.89227
H          0.51314       -0.98566        0.13560
H          0.58254        0.46016       -0.87912
H          2.60633       -2.14938        0.25316
H          4.21286       -1.24193        0.11494
H          2.80571        1.79196       -1.03886
H          4.24973        1.15145       -0.24347
H          3.10180        1.54305        1.76991
