13
-1348.1
C          0.99312       -0.96498       -0.03222
C         -0.44408       -1.40565       -0.18432
C         -1.25726       -0.34329       -0.04730
C         -0.54940        0.91545        0.22019
N          0.36807        1.45301       -0.77038
C          0.92012        0.52985        0.21643
H          1.45468       -1.47277        0.82020
H          1.56825       -1.18358       -0.93688
H         -0.75680       -2.42004       -0.38045
H         -2.33678       -0.38940       -0.11702
H         -0.91211        1.56902        1.00303
H          0.22882        0.99173       -1.67082
H          1.58115        0.92163        0.97446
