18
-1782.79
C         -0.88035        0.01942       -1.15638
C         -0.60976        1.05629       -0.02417
C         -1.16993       -0.02756        0.94246
C         -0.60030       -1.05784       -0.07129
N          0.84478       -1.21465        0.20711
C          1.62760       -0.01323       -0.10607
C          0.88027        1.28130        0.21929
H         -1.91926        0.02233       -1.51206
H         -0.23406        0.04406       -2.03806
H         -1.19200        1.98085       -0.06835
H         -0.77006       -0.04382        1.96107
H         -2.26543       -0.03362        1.00998
H         -1.14749       -1.99892       -0.15782
H          1.03598       -1.49885        1.16790
H          1.87892       -0.03404       -1.17372
H          2.58672       -0.04012        0.42318
H          1.25499        2.09163       -0.41564
H          1.04895        1.57409        1.26208
