19
-1892.91
C          0.81791        0.25121        0.01127
C          2.34562        0.04118        0.01387
C          2.72369       -0.75161        1.27917
C          2.72455       -0.77759       -1.23397
C          3.02739        1.43282        0.00000
C          4.47072        1.38881        0.00043
C          5.66032        1.35253        0.00078
H          0.49606        0.80167       -0.87976
H          0.49541        0.82012        0.89053
H          0.28429       -0.70626        0.02109
H          2.48228       -0.18557        2.18546
H          3.79235       -0.98862        1.30521
H          2.17871       -1.70174        1.32590
H          2.48396       -0.23044       -2.15221
H          2.17978       -1.72863       -1.26173
H          3.79345       -1.01516       -1.25447
H          2.68765        2.00973        0.87014
H          2.68770        1.99198       -0.88168
H          6.72547        1.31930        0.00110
