18
-1771.22
N          2.48754       -0.61585        1.21785
C          2.23503        0.05035       -0.05511
C          2.83788        1.43876       -0.07784
C          2.04100        2.52163       -0.16212
C          4.30797        1.53690        0.03601
C          5.19382        0.81952       -0.95097
C          5.08235        2.31270       -1.00213
H          2.02375       -1.52112        1.21399
H          2.04968       -0.07193        1.95930
H          1.15184        0.08860       -0.22347
H          2.65409       -0.55074       -0.86953
H          0.96183        2.43720       -0.22848
H          2.46090        3.52272       -0.15756
H          4.66372        1.58716        1.06129
H          4.74505        0.25328       -1.75755
H          6.11346        0.38739       -0.57137
H          5.92987        2.89821       -0.66565
H          4.55364        2.74546       -1.84461
