17
-1633.27
C          0.77529        0.88355       -0.65753
N         -0.39565        0.46277        0.09801
C          0.72905       -0.46825        0.00614
C          1.54688       -0.81345        1.22077
C          1.23981       -0.22276        2.61685
C          1.51097       -1.64543        3.12552
N          1.15669       -2.14001        1.77671
H          0.66616        0.93912       -1.73295
H          1.37517        1.66300       -0.20491
H         -1.15387        0.15378       -0.51214
H          0.60931       -1.33249       -0.63793
H          2.61924       -0.76842        0.97806
H          0.20719        0.10909        2.77433
H          1.92415        0.55143        2.97289
H          2.55501       -1.83195        3.40345
H          0.85843       -1.99521        3.92956
H          1.72127       -2.92117        1.45086
