17
-1577.14
C          3.91350       -1.33953       -0.65838
N          4.66936       -0.24736       -0.04962
N          4.16837        0.99138       -0.26894
C          5.06302        1.92144       -0.12862
C          4.69773        3.37723       -0.35569
C          4.99404        3.76391       -1.79346
O          3.32558        3.60998       -0.07766
H          4.39923       -2.29389       -0.43495
H          3.88020       -1.22455       -1.74592
H          2.88977       -1.37246       -0.27245
H          4.71959       -0.43223        0.95676
H          6.12144        1.70413        0.10476
H          5.29405        3.98646        0.32926
H          4.35442        3.20863       -2.48998
H          6.03834        3.56381       -2.05602
H          4.78786        4.82788       -1.95460
H          2.85773        2.80169       -0.37017
