14
-1445.57
C          0.85016        0.01350       -0.00394
C          2.34095        0.02938       -0.00425
C          3.22019        1.09121       -0.00583
N          2.85909        2.38646       -0.00649
C          4.57888        0.67826       -0.00775
C          4.70087       -0.69333       -0.00700
S          3.17977       -1.47044       -0.00434
H          0.43104        1.02434        0.00846
H          0.46902       -0.51171        0.87884
H          0.46918       -0.49044       -0.89908
H          3.53653        3.14189        0.01870
H          1.89356        2.69429        0.02325
H          5.43132        1.34446       -0.01006
H          5.61134       -1.27728       -0.00822
