18
-1719.54
C          1.04059       -0.01025       -0.02835
C          2.53317        0.05417        0.01248
O          3.08715        0.00121        1.33495
C          3.35246       -0.61272       -1.05834
C          3.27196        0.89498       -0.99893
C          4.45733        1.71225       -0.60612
N          5.24290        1.96251       -1.80788
H          0.65743        0.02585       -1.05309
H          0.61094        0.83093        0.52418
H          0.68891       -0.93848        0.43162
H          2.89096       -0.85047        1.76219
H          2.84009       -1.10742       -1.87511
H          4.28236       -1.08979       -0.76889
H          2.67578        1.40047       -1.75223
H          5.08093        1.20691        0.13885
H          4.12368        2.66397       -0.18065
H          5.58890        1.07242       -2.16117
H          6.06664        2.50242       -1.55093
