15
-1540.23
C          0.98416        0.05961        0.01411
C          2.48096        0.02797       -0.00747
C          3.20693        1.15892       -0.00969
N          4.57554        1.20179       -0.04595
C          5.16278        0.05326        0.00274
N          4.57401       -1.17180        0.09575
C          3.14429       -1.31723       -0.03446
H          0.56490       -0.95186       -0.00195
H          0.59619        0.59094       -0.86114
H          0.62109        0.55399        0.92105
H          2.71793        2.12997        0.00703
H          6.26416        0.00039       -0.02285
H          5.13695       -1.99702       -0.05808
H          2.77595       -1.93579        0.79064
H          2.91142       -1.82693       -0.97533
