11
-1148.05
C          2.07695        0.13484        0.55428
O          1.52401        0.59474       -0.71246
C          2.53240        1.47378       -0.83672
C          2.59433        2.81589       -1.01826
N          3.35264        3.23562        0.05937
N          3.53761        2.26299        1.00226
C          3.11533        1.17001        0.36784
H          2.42464       -0.90008        0.48282
H          1.41201        0.26243        1.41237
H          2.09918        3.51944       -1.67202
H          3.62672        4.18380        0.29553
