14
-1356.07
O          0.93553        0.02083        0.00151
C          2.37417        0.03054        0.00145
C          3.05215        1.05847        0.93120
C          4.11983       -0.01209        1.23972
C          3.07417       -1.07786        0.84773
O          3.55000       -2.23204        0.12689
H          0.69585       -0.83136       -0.40487
H          2.75010        0.07785       -1.02876
H          2.44620        1.34492        1.79845
H          3.42666        1.96286        0.44498
H          4.99202        0.02793        0.57849
H          4.46156       -0.04291        2.27750
H          2.46197       -1.40258        1.69946
H          4.16580       -1.89016       -0.54376
