15
-1522.68
C          1.05526       -0.02998        0.15244
C          2.54735       -0.00223        0.05497
C          3.23075        1.08012       -0.35009
O          4.59913        1.17037       -0.43330
C          5.24112        0.04966        0.19334
C          4.50969       -1.24595       -0.12671
O          3.16570       -1.20067        0.37496
H          0.66502       -0.98666       -0.21029
H          0.59402        0.76252       -0.44680
H          0.74286        0.09745        1.19364
H          2.76953        2.01050       -0.65664
H          6.27249        0.00789       -0.17005
H          5.26493        0.23080        1.27506
H          5.01283       -2.09749        0.34093
H          4.46940       -1.42285       -1.20884
