19
-1839.45
C          1.14143        1.14047        0.75306
C          2.53062        0.85691        0.22216
O          3.34304        2.00449        0.45176
C          4.64965        1.84388       -0.09452
C          5.42753        3.08853        0.18594
C          6.39877        3.63803       -0.82861
C          5.11361        4.36647       -0.54874
H          0.48432        0.27766        0.60890
H          0.70410        2.00655        0.24535
H          1.17727        1.38210        1.82076
H          2.48014        0.64331       -0.85186
H          2.96224       -0.00701        0.73964
H          4.57570        1.66000       -1.17242
H          5.14542        0.98668        0.37518
H          5.67989        3.17226        1.23762
H          6.49586        3.13959       -1.78589
H          7.31924        4.07838       -0.46305
H          5.15918        5.29262        0.01223
H          4.33116        4.34405       -1.29993
