15
-1538.28
C          1.15811        0.02530        0.17891
N          2.59946        0.05049        0.27090
C          3.31727       -1.18540       -0.02000
C          4.64053       -0.65688       -0.49238
C          4.70717        0.67889       -0.54681
C          3.38003        1.11971       -0.09209
N          3.06820        2.36528       -0.06908
H          0.71190        0.90888        0.64473
H          0.75712       -0.85227        0.69705
H          0.83886       -0.01604       -0.86781
H          2.83233       -1.76875       -0.80964
H          3.42991       -1.79253        0.88286
H          5.45615       -1.30907       -0.76931
H          5.50667        1.32870       -0.85134
H          2.12519        2.46248        0.30752
