19
-1760.97
C          3.23402       -1.15233       -0.04424
C          2.42662       -0.12603        0.74164
C          2.92385        1.32859        0.58565
C          1.95542        2.26146        1.32331
N          4.29599        1.45751        1.09835
C          4.88064        2.77084        0.85449
H          2.74349       -2.12960        0.00522
H          4.24164       -1.27246        0.36369
H          3.31523       -0.86690       -1.09778
H          2.41919       -0.41295        1.80120
H          1.38677       -0.18331        0.39573
H          2.90707        1.57789       -0.48275
H          2.00209        2.10885        2.40747
H          0.92205        2.08006        1.00532
H          2.17122        3.31419        1.11635
H          4.88956        0.76149        0.64943
H          4.38927        3.55109        1.44237
H          4.84783        3.03811       -0.20640
H          5.93167        2.75838        1.16256
