13
-1392.94
C          3.19502       -2.33208        1.32063
C          3.59653       -1.06760        1.14843
C          3.04422       -0.20014        0.13684
C          3.44147        1.06578       -0.03128
O          2.88573        1.87488       -1.02520
C          3.24193        3.19343       -0.98340
O          3.98019        3.75161       -0.18622
H          3.63820       -2.94940        2.09602
H          2.42392       -2.78436        0.70503
H          4.37345       -0.66613        1.79649
H          2.26962       -0.60267       -0.51155
H          4.20830        1.54169        0.56777
H          2.73879        3.70828       -1.81722
