16
-1566.27
N          1.01448       -0.01231        0.02605
C          2.47000        0.00000        0.00000
C          2.95202        1.36117        0.00000
C          3.34930        2.48307        0.00000
C          3.83132        3.84424        0.00000
C          2.68488        4.85189       -0.02894
O          3.19095        6.18283        0.01142
H          0.68973       -0.97260       -0.05828
H          0.66834        0.48115       -0.79542
H          2.82173       -0.53139       -0.89061
H          2.84785       -0.54083        0.87355
H          4.48833        4.02211       -0.85972
H          4.45221        4.02948        0.88480
H          2.00622        4.71414        0.81986
H          2.09690        4.74395       -0.94659
H          3.59278        6.31439        0.88777
