18
-1792.73
C          0.93429        0.03088       -0.00981
C          2.46632        0.01758        0.02181
C          3.02941        0.12154       -1.39935
N          2.92423       -1.23763        0.67111
C          3.41049       -0.87541        2.01558
C          3.52276        0.60493        2.01234
C          2.99489        1.10917        0.89693
H          0.50509       -0.04893        0.99610
H          0.54340       -0.80344       -0.60299
H          0.55776        0.95947       -0.45354
H          4.12613        0.12261       -1.40372
H          2.69950        1.04629       -1.88734
H          2.69544       -0.71783       -2.02115
H          3.72172       -1.59954        0.15028
H          4.37869       -1.34598        2.21390
H          2.69600       -1.20505        2.77759
H          3.94561        1.18363        2.82021
H          2.92378        2.16121        0.66520
