14
-1426.35
C          1.03015       -0.46886       -0.32515
C          2.43637       -0.76740        0.11515
O          2.77482       -1.85851        0.56095
N          3.29273        0.29655        0.00416
C          4.67645        0.19526        0.41295
C          5.43395        1.43505       -0.00955
O          4.90343        2.42029       -0.52098
H          0.47625       -0.02903        0.50793
H          0.54329       -1.39634       -0.63885
H          1.02698        0.22223       -1.17282
H          2.96547        1.19907       -0.32867
H          5.13063       -0.68371       -0.05331
H          4.72074        0.09771        1.50152
H          6.51787        1.41644        0.19354
