18
-1769.53
C          0.97002        1.69066        1.26277
C          2.45447        1.53456        1.22318
C          3.16166        1.37224        0.09325
C          4.63580        1.22000        0.06990
C          5.48821        2.34489        0.69370
C          6.34628        1.18919        1.24011
N          5.15123        0.32216        1.13157
H          0.70833        2.64894        1.72171
H          0.52700        0.88942        1.86207
H          0.52310        1.65692        0.26409
H          2.96267        1.54806        2.18557
H          2.65632        1.35259       -0.86825
H          4.98629        0.93274       -0.93146
H          5.00368        2.94257        1.47482
H          5.98824        3.01597       -0.00975
H          7.16993        0.89002        0.58133
H          6.72805        1.32055        2.25576
H          5.33197       -0.63070        0.82474
