12
-1218.35
C          1.51072       -0.07370       -0.28896
O          2.90103        0.13862       -0.07792
C          3.35291        1.43811       -0.08937
C          2.62134        2.54783       -0.28373
C          4.82207        1.61296        0.14181
O          5.39585        2.69587        0.16505
H          1.32471       -1.15158       -0.24921
H          1.20442        0.28398       -1.27780
H          0.91719        0.39934        0.50047
H          1.55365        2.53107       -0.45934
H          3.08594        3.53160       -0.27217
H          5.37013        0.66736        0.29493
