11
-1234.76
N          1.09733       -0.04812       -0.27176
C          2.34403        0.02005       -0.00871
N          3.12744       -1.04927        0.21486
C          4.39482       -0.64808        0.46487
O          5.36057       -1.34449        0.70790
C          4.40599        0.81762        0.39045
C          3.16540        1.22035        0.10403
H          0.78648       -1.02217       -0.28721
H          2.85655       -2.01632        0.20762
H          5.28650        1.41374        0.54751
H          2.79451        2.22126       -0.02775
