17
-1699.28
C          0.88424        0.13311       -0.08952
C          2.35767       -0.02827        0.07199
C          3.16597       -0.84923       -0.89411
O          2.46079       -1.39881       -2.01732
C          3.30615        0.65446       -0.88434
C          4.52831        1.25682       -0.34419
C          5.74552        1.18986       -0.89867
H          0.53832        0.99625        0.48784
H          0.36529       -0.75500        0.28346
H          0.59130        0.28868       -1.13286
H          2.63000       -0.10106        1.11924
H          3.96991       -1.44640       -0.47333
H          3.05442       -1.49791       -2.78126
H          2.86967        1.20137       -1.71483
H          4.42054        1.82097        0.58104
H          5.91507        0.65234       -1.82582
H          6.59660        1.67583       -0.43258
