13
-1163.14
C          0.99936        0.00416       -0.01126
N          2.46131        0.01111       -0.01432
C          2.97333       -0.71239       -1.17698
C          2.96586        1.38322       -0.00343
H          0.61376        0.50971        0.88150
H          0.61919       -1.02329        0.02196
H          0.57970        0.49841       -0.89542
H          2.63049       -1.75335       -1.16437
H          4.06879       -0.74327       -1.15965
H          2.65641       -0.25668       -2.12251
H          2.61558        1.91536        0.88844
H          2.65054        1.94886       -0.88818
H          4.06111        1.39037        0.03768
