14
-1409.33
C          0.67694       -0.78874       -0.07334
C          2.15771       -0.93254        0.10274
C          2.72335       -2.06350        0.55520
O          2.85952        0.23273       -0.16266
C          4.07761        0.18328       -0.79271
C          4.84355        1.26693       -0.93069
H          0.29652        0.01466        0.56580
H          0.13919       -1.70689        0.18451
H          0.44313       -0.54270       -1.11407
H          2.12549       -2.94032        0.78089
H          3.79051       -2.13642        0.73458
H          4.35573       -0.78381       -1.18785
H          4.52593        2.22576       -0.53500
H          5.79825        1.21371       -1.44091
