15
-1574.79
C          0.95073       -0.05874        0.25430
C          2.40961        0.03097       -0.00002
C          3.15666        1.12727       -0.17521
C          4.55430        0.78260       -0.41193
C          5.32117       -0.02619        0.60074
C          4.50274       -0.74190       -0.43489
O          3.14234       -1.16864       -0.07336
H          0.59216       -1.08198        0.10905
H          0.39592        0.58837       -0.43072
H          0.72316        0.23756        1.28170
H          2.78837        2.14307       -0.15036
H          5.07714        1.28517       -1.21424
H          6.39949       -0.06459        0.50333
H          4.97521       -0.04572        1.62777
H          5.00784       -1.26571       -1.23639
