20
-1933.2
C          2.30498       -0.33111       -1.56557
C          2.40776        0.12129       -0.11603
C          3.15251        1.44767        0.03088
C          2.44800        2.63717       -0.60833
C          2.95513        3.84131        0.17563
C          3.63435        3.26176        1.40834
N          3.23236        1.85750        1.43607
H          1.81355       -1.30767       -1.62128
H          3.29719       -0.42480       -2.01837
H          1.71801        0.37330       -2.16276
H          2.92979       -0.65557        0.45652
H          1.39773        0.19858        0.30575
H          4.16734        1.35093       -0.37810
H          1.35861        2.56229       -0.50052
H          2.67382        2.72808       -1.67565
H          3.66643        4.42569       -0.41804
H          2.12125        4.49821        0.44590
H          4.72360        3.34262        1.31363
H          3.33262        3.77993        2.32315
H          3.91374        1.29438        1.94195
