14
-1444.63
C          0.83262        0.13244       -0.00386
C          2.32012        0.06129       -0.00111
C          3.23129        1.09610        0.01007
C          4.57764        0.62556       -0.00134
C          4.65389       -0.74781       -0.02519
N          5.77085       -1.49791       -0.05528
S          3.10153       -1.46045       -0.01755
H          0.49090        1.17292        0.00487
H          0.41740       -0.36371        0.87943
H          0.42263       -0.34620       -0.89942
H          2.95093        2.14224        0.02075
H          5.44623        1.27129       -0.00109
H          5.70865       -2.50238        0.07448
H          6.68885       -1.09727        0.10092
