14
-1366.32
C          3.16699        0.66189        1.91979
O          2.46287        0.72522        0.68240
N          2.96036        1.70740       -0.19050
C          2.24692        2.98639       -0.17336
C          3.59220        3.62467       -0.57680
C          4.19224        2.27168       -0.14086
O          5.27634        1.89461        0.23678
H          2.66415       -0.07763        2.54919
H          3.12913        1.62705        2.43467
H          4.19811        0.32800        1.78029
H          1.87375        3.26689        0.81667
H          1.45032        3.05236       -0.91839
H          3.71562        3.84145       -1.64126
H          3.90552        4.47700        0.03026
