14
-1383.1
O          2.21088        0.03259       -1.33409
C          2.22456        0.11327        0.09019
C          3.21720        1.13962        0.53686
N          4.31629        1.53887       -0.35057
C          3.24063        2.50858       -0.09265
C          3.62778        3.67544        0.72566
O          2.78942        4.28992        1.37332
H          1.56850       -0.66096       -1.56503
H          2.49703       -0.86965        0.48734
H          1.22125        0.37483        0.44031
H          3.44891        1.05923        1.59238
H          4.15881        1.08484       -1.25976
H          2.56953        2.71440       -0.91807
H          4.69117        3.96827        0.71389
