8
-799.52
O          1.00030       -0.00217       -0.01150
C          2.42000        0.00000        0.00000
C          2.90202        1.36117        0.00000
C          3.29930        2.48307        0.00000
H          0.72306       -0.93169       -0.01060
H          2.77242       -0.54145       -0.88327
H          2.75803       -0.53631        0.89198
H          3.64382        3.49151       -0.00011
