16
-1579.89
C         -1.24455       -0.00165        0.98193
C         -0.60876       -1.00865       -0.00105
C          0.89585       -1.21523        0.25273
N          1.67622       -0.00033       -0.09338
C          0.89737        1.21321        0.25655
C         -0.60805        1.00823        0.00171
O         -0.82037        0.00181       -1.07271
H         -0.86678       -0.00314        2.00685
H         -2.33900       -0.00102        0.99006
H         -1.18833       -1.92129       -0.16351
H          1.07392       -1.48302        1.30020
H          1.26631       -2.04501       -0.35930
H          1.74244        0.00079       -1.11634
H          1.26757        2.04431       -0.35264
H          1.07488        1.47744        1.30476
H         -1.18711        1.92211       -0.15755
