21
-1927.34
C          0.88623        0.35570        1.44715
C          2.30462        0.10593        0.94863
C          2.95055        1.33061        0.26902
N          3.04715        2.46867        1.19634
C          4.36716        1.00195       -0.27782
N          4.34211       -0.04106       -1.31221
C          5.68780       -0.32445       -1.79412
H          0.44865       -0.57882        1.81307
H          0.24831        0.73636        0.64344
H          0.86979        1.07152        2.27424
H          2.26361       -0.72721        0.23680
H          2.92442       -0.23068        1.78924
H          2.32007        1.64402       -0.57263
H          3.52779        2.17142        2.04545
H          2.11285        2.75151        1.48817
H          5.00730        0.67997        0.55390
H          4.80602        1.91635       -0.69844
H          3.76993        0.28178       -2.09256
H          6.32875       -0.69117       -0.98590
H          6.14872        0.56089       -2.24402
H          5.64332       -1.10610       -2.55881
