13
-1421.59
C          1.06609        0.36063       -0.30058
C          2.36801        0.29486        0.02708
C          3.24437       -0.92481        0.14619
C          2.54777       -2.19179       -0.13597
C          1.99691       -3.23549       -0.36238
C          3.05035        1.58682        0.31334
O          4.23451        1.65166        0.62044
H          0.52343        1.29935       -0.35854
H          0.49104       -0.53328       -0.52515
H          3.65901       -0.97190        1.16071
H          4.09029       -0.82846       -0.54551
H          1.51134       -4.16320       -0.56246
H          2.42686        2.49345        0.23353
