16
-1541.73
C          1.27774       -1.05352       -0.22387
C          2.32533       -0.00553       -0.53843
O          3.60712       -0.53367       -0.20482
C          4.67567        0.39798       -0.45623
C          6.03562       -0.22587       -0.59381
C          5.32922        0.30644       -1.80561
H          0.27562       -0.69143       -0.47431
H          1.30208       -1.31697        0.83888
H          1.47103       -1.97414       -0.78461
H          2.13791        0.90028        0.04732
H          2.29787        0.24379       -1.60419
H          4.63403        1.36872        0.02880
H          6.11340       -1.30071       -0.47908
H          6.88623        0.32699       -0.21387
H          5.69991        1.22099       -2.25151
H          4.93428       -0.41095       -2.51642
