13
-1348.41
C          1.31138        0.13029        0.00515
C          2.78315        0.06626       -0.00047
N          3.66213        1.04178       -0.00618
C          4.84934        0.35509       -0.00895
C          6.15446        1.04062       -0.01587
N          4.73191       -0.97890       -0.00529
O          3.34898       -1.17577        0.00056
H          0.86594       -0.86910       -0.00430
H          0.95288        0.67232       -0.87485
H          0.95893        0.65312        0.89910
H          6.98500        0.32773       -0.00861
H          6.25001        1.68306        0.86477
H          6.24987        1.66512       -0.90933
