18
-1768.68
C          2.68891       -1.06181        0.92112
C          3.17577       -0.28569       -0.29193
C          3.20413        1.19020       -0.02147
C          4.31643        1.94153       -0.07295
C          4.38256        3.38017        0.17992
C          4.47861        3.86863        1.60168
N          5.63672        3.89682        0.71728
H          2.67394       -2.13496        0.70285
H          1.67356       -0.76160        1.20400
H          3.34445       -0.90132        1.78457
H          2.50661       -0.47553       -1.13806
H          4.16762       -0.65205       -0.57926
H          2.25472        1.66209        0.22376
H          5.26034        1.45961       -0.32497
H          3.88069        4.00800       -0.54847
H          4.51427        3.14321        2.40502
H          4.03208        4.82143        1.85246
H          5.81025        4.84130        0.37009
