12
-1221.77
C          0.96704       -0.00129        0.05272
C          2.45778       -0.00823       -0.24538
O          2.79053       -1.20412       -0.99317
C          3.38025       -0.65291       -2.10434
C          3.38894        0.66353       -2.09053
O          2.80661        1.19864       -0.96778
H          0.68815        0.88707        0.62764
H          0.67506       -0.89965        0.60514
H          0.38758        0.01464       -0.87714
H          3.03037       -0.02188        0.69046
H          3.74912       -1.33973       -2.84421
H          3.76723        1.36043       -2.81603
