15
-1481.54
N          1.90368       -0.44823       -1.21880
C          2.19385        0.13936        0.09055
C          3.21899        1.24849       -0.03886
C          2.73609        2.58430       -0.65410
N          3.33582        3.25265        0.50895
C          3.42189        2.09964        1.22731
O          3.53368        1.92544        2.41588
H          1.19118       -1.17101       -1.10671
H          2.73121       -0.93657       -1.56376
H          2.56842       -0.64493        0.75748
H          1.26048        0.51738        0.52250
H          4.17964        0.89667       -0.44011
H          1.65424        2.74017       -0.70845
H          3.20988        2.86432       -1.59820
H          3.01982        4.08087        0.99571
