20
-1918.51
C          3.09558       -1.15840       -0.51260
C          2.45807        0.08615        0.09662
N          2.03494       -0.16987        1.46942
C          3.43010        1.23180        0.13460
C          3.54643        2.17297       -1.04206
C          2.92689        2.65451        0.24404
C          3.64239        3.63384        1.10791
H          3.41753       -0.96195       -1.54152
H          2.38704       -1.99351       -0.53519
H          3.98030       -1.47760        0.05104
H          1.57487        0.35642       -0.49294
H          2.83640       -0.46348        2.02464
H          1.38413       -0.95280        1.48038
H          4.34788        0.97969        0.65687
H          2.88981        2.02835       -1.89295
H          4.53550        2.52990       -1.30721
H          1.85373        2.81153        0.26498
H          4.72694        3.48431        1.08995
H          3.30281        3.53952        2.14384
H          3.43390        4.65401        0.77180
