17
-1665.06
C          1.06078        0.07502        0.01528
C          2.58154       -0.05080       -0.01725
C          3.04810       -1.27285       -0.79688
C          3.35703       -0.62161       -2.10901
C          3.60215       -1.42993       -3.33750
N          3.41184        0.67358       -2.08483
N          3.18567        1.03025       -0.79624
H          0.75808        0.99598        0.52466
H          0.61934       -0.76903        0.55535
H          0.62926        0.08944       -0.99153
H          2.96915       -0.06199        1.00661
H          2.28790       -2.04960       -0.90743
H          3.97220       -1.69580       -0.39256
H          3.77115       -0.77706       -4.19777
H          2.73420       -2.06479       -3.53276
H          4.48158       -2.06120       -3.18509
H          2.68919        1.91949       -0.72070
