19
-1809.31
C          1.78624       -1.23094        1.03253
C          1.85458       -0.18942       -0.07556
C          3.08456        0.71144        0.03377
N          4.30287       -0.04254       -0.19872
C          5.56214        0.49681       -0.15813
C          6.65481       -0.24475       -0.89226
N          5.88591        1.58173        0.45824
H          0.85353       -1.79869        0.95793
H          1.81663       -0.75754        2.01874
H          2.61690       -1.93976        0.96447
H          0.95563        0.43633       -0.02368
H          1.83854       -0.69452       -1.04884
H          3.10518        1.18057        1.02350
H          3.00958        1.50826       -0.71489
H          4.19290       -0.81853       -0.84559
H          6.74140       -1.25774       -0.48880
H          7.61456        0.26789       -0.78345
H          6.40025       -0.30429       -1.95461
H          5.07158        1.96537        0.93605
