10
-1065.62
C          0.98604        0.01482       -0.00654
C          2.48587       -0.00007       -0.00315
C          3.16760       -1.15818        0.00516
C          3.19071        1.24249       -0.00623
N          3.76085        2.25260       -0.00803
H          0.59304        1.03708        0.02192
H          0.59204       -0.51386        0.86802
H          0.59806       -0.46366       -0.91211
H          2.65458       -2.11534        0.00789
H          4.25464       -1.18189        0.00842
