19
-1924.31
C          1.00464       -0.04858        0.28347
C          2.37690        0.12819       -0.28181
C          3.16909        1.20083       -0.12483
C          2.82346        2.48711        0.56635
C          3.51561        3.50779       -0.32482
C          4.82231        2.83510       -0.72144
C          4.51082        1.33918       -0.79633
H          0.90073       -1.05872        0.69211
H          0.25657        0.07796       -0.50573
H          0.78403        0.65552        1.09081
H          2.74074       -0.70595       -0.87853
H          3.25373        2.49751        1.57369
H          1.74982        2.68633        0.63320
H          2.90561        3.70493       -1.21693
H          3.68061        4.46146        0.18623
H          5.20106        3.21803       -1.67446
H          5.58919        3.02074        0.03675
H          4.47276        1.00011       -1.83648
H          5.27873        0.76733       -0.26381
