21
-1991.66
C          0.92588       -0.06333       -0.01955
C          2.46248       -0.12513       -0.00948
C          2.91430       -0.88500        1.25293
C          2.94657       -0.90067       -1.24621
C          3.07792        1.29682        0.03421
C          2.73305        2.20911       -1.14038
O          3.37776        3.46658       -0.96887
H          0.54420        0.38828       -0.94071
H          0.54923        0.52311        0.82538
H          0.49167       -1.06687        0.05236
H          2.58012       -0.37421        2.16262
H          4.00598       -0.96587        1.29618
H          2.50477       -1.90097        1.27295
H          2.57994       -0.45276       -2.17522
H          2.59041       -1.93678       -1.22447
H          4.04062       -0.92629       -1.29238
H          4.17197        1.22177        0.10211
H          2.77253        1.79832        0.96296
H          1.65741        2.39067       -1.21534
H          3.08252        1.79079       -2.08780
H          3.04805        3.85412       -0.14005
