10
-1129.26
C         -0.75216        1.16263        0.00841
C          0.62329        1.18247        0.02520
N          1.38290        0.07209        0.05374
C          0.71166       -1.09058        0.06513
N         -0.62295       -1.23209        0.05080
C         -1.32943       -0.08667        0.02238
H         -1.34143        2.06832       -0.01451
H          1.17175        2.11958        0.01615
H          1.30245       -1.99953        0.08822
H         -2.40873       -0.20704        0.01094
