12
-1230.14
C          0.40048        1.48959        0.50150
C          0.92208        0.37010       -0.34331
N          0.95425       -0.99757        0.19365
C         -0.37475       -1.31470        0.34214
N         -1.27151       -0.41838        0.04209
C         -0.55267        0.76227       -0.40395
H          0.67931        2.50029        0.22915
H          0.30151        1.33579        1.56940
H          1.54248        0.56750       -1.20631
H          1.54412       -1.71512       -0.21116
H         -0.59504       -2.34349        0.66438
H         -0.97710        1.32613       -1.22313
