15
-1446.08
C          1.42257       -0.43090       -0.81711
N          2.81268       -0.19347       -0.44548
N          3.16847        1.10747       -0.33111
C          4.42210        1.27366       -0.05170
C          4.97720        2.65382        0.11796
C          5.60791        2.86931        1.46004
O          5.93201        1.96445        2.22319
H          1.24345       -1.50559       -0.91407
H          1.19417        0.03712       -1.77971
H          0.74080       -0.03357       -0.05886
H          3.01560       -0.71480        0.41240
H          5.12866        0.42898        0.05279
H          4.17899        3.39151       -0.00970
H          5.74101        2.82253       -0.64691
H          5.82812        3.92064        1.71246
