19
-1799.1
C          0.99299        0.00074       -0.02400
C          2.52221       -0.04549        0.05824
C          2.94705       -0.84157        1.29333
O          3.01370       -0.74651       -1.08942
C          3.09625        1.38712        0.06054
C          4.62304        1.46754        0.05270
O          5.16282        0.86950       -1.11702
H          0.66445        0.53136       -0.92491
H          0.55763        0.49904        0.84838
H          0.57523       -1.01016       -0.09261
H          2.66291       -0.33137        2.21943
H          4.02759       -1.01886        1.30573
H          2.48285       -1.83492        1.29173
H          2.62049       -0.33219       -1.88014
H          2.71414        1.93992        0.92750
H          2.73881        1.90100       -0.84200
H          5.06304        0.98709        0.93080
H          4.93600        2.51627        0.06133
H          4.77002       -0.02658       -1.17828
