17
-1631.67
C          1.06112        0.01221       -0.04626
N          2.50885       -0.00651        0.10413
C          2.99992        1.09265        0.93422
C          4.42778        0.65863        1.20460
C          4.32494       -0.85139        1.37235
C          2.99202       -1.23656        0.73555
H          0.73272       -0.81692       -0.68102
H          0.73972        0.93766       -0.53535
H          0.54068       -0.06451        0.91625
H          2.44329        1.17589        1.87603
H          2.96235        2.05403        0.41233
H          5.06737        0.89198        0.34443
H          4.85454        1.14563        2.08578
H          5.17068       -1.35632        0.89699
H          4.32469       -1.11785        2.43633
H          3.12019       -2.03301       -0.00468
H          2.30974       -1.59897        1.51387
