12
-1259.83
O          1.19393       -0.10492        0.37306
C          2.35664       -0.02745        0.01293
C          3.19809        1.21232        0.05037
C          4.34146        0.84058       -0.85968
C          4.43566       -0.65051       -0.66994
O          3.09514       -1.08311       -0.44098
H          3.53461        1.38497        1.07666
H          2.64717        2.07637       -0.32783
H          4.07124        1.06598       -1.89863
H          5.27293        1.36482       -0.63072
H          4.83941       -1.15080       -1.55473
H          5.04334       -0.92138        0.19997
