18
-1652.48
C          2.33646        1.81332        1.98294
O          2.56657        2.63215        0.84485
C          3.10605        1.88933       -0.24004
O          4.43174        1.43366        0.00702
C          5.35842        2.52537        0.07284
C          6.75433        1.97145        0.38163
N          6.79187        1.32386        1.69731
H          1.96415        2.44754        2.79231
H          3.26141        1.33391        2.31827
H          1.57846        1.05538        1.75995
H          3.09096        2.51943       -1.13587
H          2.47306        1.01798       -0.44672
H          5.05519        3.23730        0.84816
H          5.37856        3.03937       -0.89501
H          7.49269        2.77889        0.35713
H          7.02667        1.22925       -0.37595
H          6.00209        0.67545        1.73991
H          7.63374        0.75512        1.76718
