17
-1598.79
C          1.18736        0.29154        1.54203
N          2.32618        1.04898        2.01319
C          3.43682        1.19217        1.23018
O          4.34016        2.11287        1.65640
C          4.47232        2.37627        3.05959
N          3.62587        0.54715        0.13237
C          4.86577        0.83524       -0.57750
H          0.44468        0.21065        2.34176
H          1.47763       -0.72316        1.25094
H          0.71738        0.79042        0.68830
H          2.07065        1.88349        2.52216
H          5.46313        2.80894        3.22721
H          4.39568        1.45397        3.64478
H          3.71944        3.10482        3.37461
H          4.92617        0.19223       -1.46134
H          5.74460        0.62228        0.04058
H          4.89700        1.87363       -0.92378
