18
-1713.86
C          1.35279       -0.07265        1.15925
C          2.27003        0.17849       -0.02821
C          3.31522        1.19648        0.29610
O          3.60954        2.10918       -0.77086
C          2.96776        2.66145        0.38858
C          3.81163        3.58266        1.20126
N          3.39332        4.95866        0.95118
H          0.62930       -0.85841        0.92307
H          0.79755        0.83328        1.42156
H          1.92450       -0.38161        2.03963
H          1.66739        0.49385       -0.88889
H          2.76308       -0.75993       -0.31074
H          4.13526        0.80607        0.88217
H          1.92570        2.94705        0.32847
H          4.87427        3.47240        0.95967
H          3.68380        3.35628        2.26432
H          3.54083        5.16687       -0.03738
H          4.00639        5.59025        1.46526
