21
-1996.76
C          1.15340        0.52554        0.60034
C          2.52298        1.08994        0.95047
C          3.52414        0.86951       -0.18922
C          4.92237        1.47002        0.06363
C          5.59953        0.87386        1.29894
C          5.81175        1.25513       -1.16562
O          4.80377        2.87810        0.27912
H          0.45495        0.68665        1.42711
H          1.21097       -0.55036        0.40899
H          0.74417        1.01249       -0.29010
H          2.87459        0.60271        1.86644
H          2.42229        2.15991        1.16589
H          3.10360        1.32492       -1.09565
H          3.61608       -0.20599       -0.38653
H          5.06809        1.14327        2.21740
H          6.61450        1.27179        1.41481
H          5.66367       -0.21713        1.23537
H          5.36886        1.71774       -2.05499
H          5.96625        0.19042       -1.36975
H          6.79017        1.72861       -1.02784
H          4.37870        3.26563       -0.50516
