14
-1485.72
C          1.05614       -0.00072        0.19226
C          2.38254       -0.00136        0.01026
C          3.24787       -1.22648       -0.14978
C          4.59277       -0.67130       -0.50714
C          4.59406        0.66856       -0.50208
C          3.25015        1.22363       -0.14013
H          0.49951        0.92791        0.26989
H          0.49782       -0.92873        0.26249
H          2.87646       -1.87433       -0.94950
H          3.31063       -1.78912        0.78702
H          5.44982       -1.28880       -0.73442
H          5.45211        1.28674       -0.72464
H          3.31428        1.77872        0.80137
H          2.87994        1.87887       -0.93469
