13
-1415.1
C          0.99903        0.02184        0.10213
C          2.47323        0.02467       -0.05010
C          3.29291       -1.00204       -0.22028
O          4.63375       -0.70010       -0.33451
C          4.66138        0.67293       -0.22422
O          5.69201        1.33255       -0.27777
C          3.28201        1.26413       -0.03084
H          0.59421       -0.99370        0.05821
H          0.53224        0.60646       -0.69643
H          0.71400        0.45818        1.06396
H          3.06224       -2.05280       -0.28367
H          3.03423        1.92547       -0.86458
H          3.22188        1.77518        0.93301
