12
-1283.06
O          1.20767        0.45939       -0.90895
C          2.07255        0.23179       -0.06950
C          3.18993        1.17193        0.17708
N          3.68048        1.89045       -1.00752
C          2.98430        2.65785        0.02705
C          3.75724        3.54377        0.84455
C          4.40363        4.28958        1.52894
H          2.06229       -0.68399        0.54374
H          3.95810        0.82487        0.85809
H          3.04243        1.73514       -1.79536
H          1.99255        3.00883       -0.24449
H          4.98317        4.95334        2.12711
