20
-1920.55
C          3.33109       -1.25049        0.06547
C          2.57886       -0.09835        0.72131
C          3.08884        1.28587        0.28249
N          2.26004        2.33190        0.88038
C          4.51521        1.52904        0.69033
C          5.51797        1.76164       -0.17387
C          6.93364        2.00238        0.23594
H          2.87755       -2.20463        0.35154
H          4.37917       -1.27458        0.37723
H          3.29483       -1.17164       -1.02513
H          2.64618       -0.20679        1.81230
H          1.51605       -0.19299        0.46149
H          2.99173        1.36699       -0.80720
H          2.22811        2.20443        1.88992
H          1.30115        2.22381        0.55589
H          4.72795        1.50995        1.75628
H          5.31370        1.79222       -1.24140
H          7.06591        1.95014        1.32135
H          7.25605        2.99230       -0.10054
H          7.58609        1.25315       -0.22316
