15
-1615.69
C          1.00000        0.00000        0.00000
C          2.44400        0.00000        0.00000
C          3.63416        0.00000        0.00000
C          5.04016        0.00000        0.00000
C          5.68527       -1.13193       -0.32275
C          5.78905        1.19882        0.34179
C          5.27161        2.38882        0.68113
H          0.60615        1.02092        0.01318
H          0.60598       -0.52175        0.87753
H          0.60596       -0.49899       -0.89066
H          5.14173       -2.03640       -0.58063
H          6.76821       -1.19347       -0.34031
H          6.87444        1.11321        0.31734
H          4.20188        2.56642        0.73181
H          5.92303        3.22399        0.91923
