21
-2050.05
C          0.70329        0.86578       -0.00315
C          2.19908        0.61306       -0.10194
C          2.98964        1.92185       -0.11492
C          4.49326        1.65960       -0.22424
C          5.27348        2.94352       -0.23507
C          6.19424        3.26740        0.68489
C          6.97728        4.53981        0.67228
H          0.15857       -0.08356        0.00939
H          0.34684        1.45048       -0.85742
H          0.45674        1.41100        0.91367
H          2.40774        0.04256       -1.01429
H          2.51585       -0.00422        0.74664
H          2.77698        2.48759        0.80085
H          2.65844        2.54130       -0.95826
H          4.70829        1.11553       -1.15178
H          4.81638        1.01692        0.60405
H          5.06772        3.62853       -1.05596
H          6.40669        2.58160        1.50307
H          6.70146        5.18754       -0.16594
H          8.04631        4.31861        0.59599
H          6.80526        5.09221        1.60105
