15
-1524.76
O          0.58738        0.10357        0.90456
C          1.87349       -0.34075        0.48409
C          2.75478        0.87110        0.23568
C          4.13823        0.46358       -0.22099
O          4.46923       -0.71200       -0.37059
C          5.15278        1.51795       -0.50681
C          4.94899        2.83452       -0.38594
H          0.05012       -0.69456        1.05204
H          1.75449       -0.93646       -0.42710
H          2.29357       -0.98010        1.26777
H          2.83366        1.45662        1.15862
H          2.29249        1.50563       -0.52894
H          6.11479        1.13575       -0.83565
H          4.00722        3.26391       -0.06126
H          5.74975        3.53153       -0.61703
