15
-1464.5
C          1.62828       -0.93440       -0.27863
C          3.12173       -0.65521       -0.31277
C          3.43121        0.79667        0.04176
C          4.91716        1.08387        0.00867
N          5.24202        2.37737        0.29843
O          5.78625        0.26182       -0.24969
H          1.43357       -1.98291       -0.52454
H          1.09604       -0.31098       -1.00423
H          1.21410       -0.73601        0.71502
H          3.50998       -0.88679       -1.31190
H          3.63128       -1.32760        0.38819
H          3.06003        1.02449        1.04758
H          2.93519        1.46899       -0.66795
H          4.55924        3.07764        0.54863
H          6.22264        2.62516        0.29874
