17
-1722.67
C          0.97109        0.05796       -0.04548
C          2.48603        0.00529        0.08211
O          2.84723       -1.21445        0.76351
C          3.37746       -0.88082        2.05574
C          3.56858        0.58882        2.04012
C          3.05552        1.09955        0.92230
C          3.04562        2.52488        0.50656
H          0.61241       -0.80151       -0.62340
H          0.63844        0.97441       -0.54347
H          0.48619       -0.00323        0.93531
H          2.95322       -0.01494       -0.90764
H          4.32131       -1.41601        2.19841
H          2.66317       -1.18764        2.82470
H          4.04325        1.14597        2.83273
H          2.78468        2.62369       -0.55340
H          4.03264        2.97821        0.64584
H          2.31267        3.09010        1.08834
