16
-1645.86
C          0.64876       -0.04820        0.20262
N          1.97992        0.50003       -0.01392
C          0.83138        1.39918       -0.19309
C          0.62085        2.52978        0.79261
C          0.26659        3.70908       -0.07142
C          0.17918        3.36649       -1.36762
C          0.46073        1.90491       -1.57295
H          0.39664       -0.27803        1.23028
H          0.29390       -0.75946       -0.53298
H          2.36015        0.21238       -0.91660
H          1.52424        2.73880        1.37281
H         -0.20529        2.30780        1.47706
H          0.11476        4.70626        0.31726
H         -0.05398        4.04922       -2.17156
H         -0.43622        1.40219       -1.94824
H          1.27674        1.77188       -2.29070
