18
-1748.56
C          2.31629       -0.45560       -1.45630
C          2.47336        0.04252       -0.02916
C          3.25338        1.34816       -0.00171
C          2.52962        2.62716       -0.50548
C          3.25645        3.39278        0.61782
C          3.34035        2.05410        1.37845
H          1.77277       -1.40553       -1.47064
H          3.29245       -0.61252       -1.92751
H          1.76136        0.26391       -2.06745
H          3.00282       -0.71530        0.55903
H          1.48331        0.16991        0.42295
H          4.24892        1.22985       -0.45543
H          1.43975        2.60862       -0.38904
H          2.77299        2.93960       -1.52428
H          4.23273        3.79319        0.31994
H          2.68031        4.18264        1.10646
H          4.26321        1.88597        1.93981
H          2.48434        1.87166        2.03864
