20
-1937.43
C          1.02593       -0.00103       -0.10511
C          2.54117        0.00787        0.03057
C          3.04863        1.11337        0.95217
C          4.48375        0.68708        1.22278
C          4.42774       -0.83536        1.33918
C          3.10748       -1.26537        0.68036
N          3.29175       -2.35500       -0.27039
H          0.69521       -0.81287       -0.76059
H          0.67226        0.94347       -0.53150
H          0.53849       -0.13257        0.86710
H          2.98219        0.15183       -0.96568
H          2.47847        1.14376        1.88865
H          2.99590        2.10159        0.48523
H          5.12014        0.96571        0.37382
H          4.89753        1.15811        2.11923
H          5.31341       -1.28839        0.87922
H          4.42659       -1.13792        2.39318
H          2.42839       -1.61735        1.46741
H          3.95485       -2.07193       -0.99197
H          2.41423       -2.54022       -0.75459
