15
-1518.71
C          3.12853       -1.22398       -0.52635
C          2.44964        0.00438        0.06225
C          3.36448        1.21958        0.05969
C          2.74028        2.36925        0.77573
N          2.52649        3.39407        0.01772
N          2.98496        3.07738       -1.29608
C          3.45678        1.87373       -1.27692
H          2.45337       -2.08461       -0.48435
H          4.03456       -1.47712        0.03347
H          3.40401       -1.06309       -1.57315
H          2.13967       -0.22302        1.08967
H          1.53155        0.20826       -0.50349
H          4.35588        1.00865        0.46752
H          2.50295        2.32631        1.84684
H          3.89700        1.36587       -2.14538
