13
-1301.04
C          1.87423        3.07341        0.94493
C          3.00243        2.66872        0.35941
O          3.37110        1.32261        0.33398
C          4.70355        1.04516        0.21288
N          5.64927        1.92247        0.15813
N          6.89260        1.30711        0.04321
C          7.83530        2.18928        0.04382
H          1.59461        4.12096        0.94535
H          1.21474        2.36683        1.43648
H          3.68392        3.33504       -0.15301
H          4.85297       -0.04633        0.17717
H          8.88512        1.86977       -0.03927
H          7.64599        3.27357        0.12568
