13
-1310.11
C          5.52336       -0.87836       -0.25401
N          5.33060        0.25567       -0.83907
N          4.67389        1.14081        0.00631
C          4.50038        2.28078       -0.57918
C          3.84889        3.41261        0.14541
C          4.87421        4.36093        0.68556
O          4.89793        5.55631        0.40753
H          6.03267       -1.69250       -0.79174
H          5.20101       -1.08525        0.78054
H          4.86383        2.47810       -1.60400
H          3.25648        3.03526        0.98400
H          3.18999        3.94134       -0.54922
H          5.60407        3.92934        1.39271
