15
-1463.01
C          0.97843       -0.01024        0.37209
C          2.42535       -0.04479       -0.09576
C          2.81403        1.23254       -0.83348
O          4.13509        1.12951       -1.39691
C          4.50650       -0.11275       -1.80197
N          3.84849       -1.21883       -1.65100
N          2.63833       -1.13747       -1.04295
H          0.81541        0.82638        1.06083
H          0.71437       -0.93395        0.89930
H          0.28459        0.10779       -0.46827
H          3.08734       -0.19163        0.76637
H          2.82103        2.08111       -0.14143
H          2.11949        1.47307       -1.64754
H          5.49641       -0.08142       -2.28041
H          2.37108       -2.04028       -0.64620
