17
-1622.36
C          2.45895       -1.02152       -0.03284
C          2.02963        0.43427       -0.12483
C          3.21231        1.35297       -0.10429
C          3.76805        1.91268       -1.38089
N          3.00215        2.76058       -0.46283
N          3.89954        3.47853        0.24146
C          3.42048        4.62610        0.58923
H          1.58550       -1.68016       -0.06240
H          2.99768       -1.21176        0.90188
H          3.12226       -1.28971       -0.86189
H          1.37793        0.66949        0.72421
H          1.43538        0.57642       -1.03538
H          3.88770        1.14764        0.71888
H          3.27342        1.68393       -2.31575
H          4.83651        2.07454       -1.45701
H          4.04558        5.32023        1.17230
H          2.40095        4.96760        0.33717
