15
-1545.17
C          0.99572       -0.01079       -0.17597
C          2.48848       -0.10217        0.00173
C          2.99974       -1.49660        0.24709
C          3.24149        1.01558       -0.01392
C          4.70684        1.09056        0.13749
O          5.36369        0.25744       -0.69108
O          5.25395        1.90151        0.86410
H          0.65924        1.01728       -0.34719
H          0.48173       -0.38442        0.71698
H          0.68031       -0.61059       -1.03584
H          2.40210       -1.98679        1.02304
H          4.03706       -1.51807        0.59129
H          2.92813       -2.09042       -0.66946
H          2.78096        1.99675       -0.09444
H          4.76662       -0.23601       -1.28366
