14
-1518.39
C          1.04778       -0.11773        0.34022
C          2.49855       -0.06288       -0.07552
C          3.07619       -1.17696       -0.56382
C          3.21816        1.21708        0.05128
C          2.74771        2.25778        0.76450
C          4.47125        1.39709       -0.62905
N          5.48457        1.55444       -1.17480
H          0.46502        0.65054       -0.18017
H          0.94609        0.02789        1.42093
H          0.58717       -1.08300        0.10055
H          2.52212       -2.10768       -0.65389
H          4.11357       -1.22044       -0.88399
H          1.81402        2.22553        1.31406
H          3.30184        3.19180        0.82911
