15
-1525.31
C          2.80586       -1.02274        0.54270
N          2.68205       -0.10235       -0.57940
N          3.31102        1.12957       -0.29372
C          2.66089        2.24899        0.13704
C          3.59362        3.25520        0.27341
C          4.84880        2.71830       -0.10699
C          4.63877        1.40158       -0.46328
H          2.27981       -1.95359        0.30844
H          2.35221       -0.61063        1.45075
H          3.85199       -1.27274        0.74958
H          3.06923       -0.52891       -1.41765
H          1.59402        2.23659        0.31083
H          3.38993        4.26568        0.60318
H          5.79878        3.23522       -0.12592
H          5.32623        0.64573       -0.81501
