18
-1795.05
C          0.97031        0.10865        0.02356
C          2.45112       -0.00219       -0.02414
C          3.21123       -1.10016       -0.10792
C          2.77567       -2.51871       -0.17256
C          4.65349       -0.72934       -0.09118
N          4.68790        0.74265       -0.18999
C          3.31048        1.21174        0.05564
H          0.48274       -0.86905       -0.03455
H          0.60772        0.71333       -0.81398
H          0.65442        0.58588        0.95696
H          3.63812       -3.19165       -0.22834
H          2.16014       -2.69508       -1.06048
H          2.20127       -2.78959        0.71905
H          5.12635       -1.05051        0.84257
H          5.19454       -1.17455       -0.93224
H          4.92105        0.97674       -1.15409
H          3.02787        1.95669       -0.69566
H          3.24532        1.66978        1.04812
