18
-1764.33
C          0.95234        0.02442       -0.69320
C          2.41890        0.01184       -0.41147
C          3.21607        1.08521       -0.52968
C          4.65517        1.11267       -0.26259
C          5.59969        0.53152       -1.29202
N          5.46535        1.97142       -1.12283
C          6.59477        2.58228       -0.42979
H          0.72081       -0.68158       -1.49697
H          0.59588        1.01483       -0.99569
H          0.39829       -0.27840        0.20104
H          2.84413       -0.93790       -0.09788
H          2.77701        2.03147       -0.84539
H          4.92985        1.03682        0.78418
H          5.18817        0.12564       -2.20900
H          6.50396        0.04583       -0.94564
H          6.27209        3.51353        0.04753
H          7.37595        2.83504       -1.15444
H          7.04810        1.94945        0.34308
