11
-1214.49
C          1.00000        0.00000        0.00000
C          2.19016        0.00000        0.00000
C          3.63416        0.00000        0.00000
C          4.21683        1.11182       -0.79979
N          4.95863        0.71305       -1.78255
N          4.95857       -0.71606       -1.78123
C          4.21678       -1.11314       -0.79778
H         -0.06660       -0.00001       -0.00641
H          4.05206        0.00089        1.00934
H          4.03981        2.16527       -0.54495
H          4.03968       -2.16609       -0.54103
