19
-1781.15
C          1.26643       -0.24127        0.36517
N          2.69040        0.06426        0.42107
C          2.97314        1.50024        0.23330
C          2.44782        2.38611        1.40596
N          2.69789        3.82334        1.22208
C          4.47796        1.62233        0.11096
C          5.11917        2.13302       -0.94991
H          1.13280       -1.32753        0.37877
H          0.80386        0.13925       -0.55057
H          0.73273        0.15324        1.23386
H          3.15098       -0.43855       -0.33906
H          2.50520        1.83805       -0.70183
H          2.90733        2.06675        2.34946
H          1.36573        2.26324        1.51438
H          3.69939        3.96801        1.09171
H          2.44982        4.31274        2.08022
H          5.06178        1.26197        0.95564
H          4.57957        2.50809       -1.81327
H          6.20209        2.18749       -0.96983
