15
-1580.76
C          1.05979        0.17642       -0.62129
O          2.32965        0.11056        0.01630
C          3.06513        1.25717       -0.01010
C          4.40490        1.30903        0.02696
C          4.84499        2.74147        0.00403
C          3.53276        3.47282       -0.03689
C          2.51947        2.59277       -0.03999
H          0.66461       -0.84163       -0.68981
H          1.14425        0.57572       -1.63789
H          0.35618        0.76873       -0.02779
H          5.06218        0.45556        0.06908
H          5.44591        2.95758       -0.88402
H          5.41004        2.99602        0.90539
H          3.43216        4.54723       -0.04756
H          1.47206        2.84620       -0.04545
