16
-1599.87
C          0.94668        0.40897        0.14266
N          2.39573        0.46760        0.14833
C          3.14348       -0.77079        0.00709
C          3.24764       -1.11269       -1.44864
C          2.79102       -2.24375       -2.00354
C          3.06368        1.66560        0.28813
O          4.28014        1.81340        0.30646
H          0.51309        1.41258        0.16426
H          0.61688       -0.13867        1.02994
H          0.60283       -0.10796       -0.75692
H          2.63855       -1.55323        0.58421
H          4.15183       -0.65161        0.41766
H          3.75492       -0.38295       -2.07683
H          2.29297       -3.00928       -1.41710
H          2.91694       -2.42764       -3.06651
H          2.38393        2.52741        0.38953
