19
-1787.96
C          1.03218        0.03572       -0.09423
C          2.52379        0.04613       -0.08776
C          3.29017       -0.64439       -1.17997
C          3.32743        0.86820       -1.07734
N          2.59843        1.64105       -2.11271
C          4.60861        1.52192       -0.56678
N          5.40754        1.94416       -1.72068
H          0.64717        0.94008        0.38767
H          0.66372       -0.82927        0.46651
H          0.61472       -0.02060       -1.10444
H          2.90523       -0.03252        0.92484
H          2.73264       -1.10069       -1.98982
H          4.17338       -1.20662       -0.89750
H          2.41909        1.05764       -2.92690
H          3.24977        2.35730       -2.45569
H          5.19071        0.83522        0.05741
H          4.35402        2.39844        0.03844
H          5.66269        1.11361       -2.25357
H          6.28047        2.34441       -1.38188
