13
-1268.21
O          2.10601       -0.41369        1.52695
N          2.61586        0.22644        0.38559
C          2.79992       -0.64640       -0.76551
C          4.00788       -1.47557       -0.62080
C          4.99955       -2.14350       -0.50538
C          3.42621        1.29282        0.66326
N          3.45121        1.95407        1.76897
H          2.90788       -0.76313        1.96506
H          2.86857       -0.04019       -1.67592
H          1.91828       -1.28739       -0.88041
H          5.88368       -2.73086       -0.40434
H          4.10459        1.56741       -0.16255
H          2.71397        1.55169        2.36238
