13
-1359.55
C          1.37671       -0.56961       -0.26777
N          2.76906       -0.20400       -0.17423
C          3.14272        1.12584       -0.16187
O          2.34160        2.04707       -0.29445
C          4.62162        1.36837        0.01247
C          4.94282        1.52860        1.42767
N          5.23311        1.62238        2.54867
H          1.30578       -1.65465       -0.37158
H          0.92547       -0.08033       -1.13532
H          0.86157       -0.24638        0.64081
H          3.42365       -0.91278        0.13348
H          4.89234        2.26438       -0.55643
H          5.18554        0.53528       -0.42131
