9
-861.73
C          0.97512       -0.01044        0.00782
C          2.46737        0.02625        0.01091
C          3.17572        1.16221       -0.01009
H          0.62836       -1.04800       -0.03704
H          0.57103        0.51413       -0.86362
H          0.57263        0.43807        0.92139
H          2.98993       -0.92701        0.03015
H          2.69154        2.13386       -0.02771
H          4.26142        1.14094       -0.00757
