15
-1466.18
N          1.14371       -0.33485        0.22916
C          2.58589       -0.30986        0.45591
C          3.19978        0.93357       -0.18883
C          4.70284        1.04468        0.06962
C          5.46696        0.00361       -0.63346
C          6.09284       -0.84714       -1.20782
H          0.75711       -1.19099        0.62531
H          0.95803       -0.37924       -0.77252
H          3.02728       -1.22250        0.04219
H          2.77491       -0.30628        1.53476
H          2.71320        1.82843        0.22048
H          3.00525        0.93113       -1.26935
H          4.90428        0.99535        1.14593
H          5.04720        2.02810       -0.27204
H          6.64761       -1.60001       -1.71736
