20
-1902.25
C          2.83510       -0.75037       -1.51699
N          2.13113        0.31782       -0.80931
C          1.21400        1.01629       -1.70176
C          3.03158        1.16507        0.02371
C          3.29880        0.58803        1.39969
C          4.16741        1.91532       -0.64430
C          3.01751        2.67929       -0.06527
H          3.45457       -1.33672       -0.82939
H          3.48067       -0.36274       -2.31285
H          2.12210       -1.45211       -1.96534
H          1.74090        1.56339       -2.49173
H          0.58659        1.71921       -1.14259
H          0.52530        0.31002       -2.18045
H          3.91548        1.25595        2.01162
H          3.82562       -0.36799        1.32325
H          2.35631        0.42304        1.93116
H          4.25508        1.88990       -1.72415
H          5.12265        1.96676       -0.13329
H          3.19412        3.25171        0.83978
H          2.35915        3.18958       -0.75601
