15
-1578.07
C          1.12425       -1.20761        0.58018
C          2.45498       -0.58237        0.30544
C          2.72705        0.71265        0.05717
C          1.75793        1.78929        0.03097
C          0.96960        2.12909        1.05893
C          4.15138        1.06297       -0.26292
O          5.06771        0.25160       -0.32495
H          0.94840       -2.01952       -0.13344
H          0.28660       -0.51135        0.49467
H          1.11598       -1.63386        1.58841
H          3.27755       -1.29876        0.29116
H          1.71833        2.37567       -0.88537
H          0.99283        1.59348        2.00349
H          0.27815        2.96192        0.97497
H          4.32973        2.13652       -0.44780
