14
-1423.21
O          2.83590        2.36408       -2.23825
C          2.25031        2.09823       -1.19177
C          2.88801        1.42347        0.01084
N          4.33673        1.24899       -0.15107
C          5.06599        2.49776        0.06342
C          6.50725        2.24961       -0.07849
C          7.68407        2.04735       -0.19539
H          1.17451        2.31809       -1.08128
H          2.42167        0.43764        0.10749
H          2.64881        1.99580        0.91302
H          4.51815        0.95018       -1.11332
H          4.86872        2.88013        1.07147
H          4.75911        3.26813       -0.65211
H          8.72845        1.86033       -0.29975
