13
-1326.99
C          0.94595        0.02443        0.21617
N          2.39878        0.05992        0.36943
C          2.96070        1.38568        0.00000
C          2.50501        2.42675        1.00738
O          1.69344        3.31488        0.74523
C          4.40470        1.38568        0.00000
N          5.55571        1.38568        0.00000
H          0.58786       -0.98914        0.42315
H          0.64018        0.28606       -0.80186
H          0.44783        0.69164        0.92630
H          2.80344       -0.64403       -0.25141
H          2.59823        1.67834       -0.99273
H          2.90525        2.31855        2.03137
