16
-1487.24
N          0.88499        0.06883       -0.20601
C          2.33593       -0.08440       -0.17046
C          3.02087        1.20586        0.28835
C          4.51121        1.03550        0.34572
C          5.37673        1.40960       -0.83081
N          5.35250        2.23069        0.37549
H          0.46136       -0.78374       -0.56956
H          0.63415        0.81342       -0.85588
H          2.69686       -0.36832       -1.16549
H          2.58951       -0.90418        0.51109
H          2.66065        1.47995        1.28767
H          2.75100        2.02918       -0.38596
H          4.82044        0.22070        0.99030
H          4.91540        1.85125       -1.70541
H          6.28112        0.84372       -1.01448
H          6.18630        2.07370        0.94529
