9
-1005.85
O          0.93618        0.08841       -0.00000
N          2.33613       -0.02969       -0.00000
C          2.94701        1.11638       -0.00000
C          2.20021        2.34651       -0.00000
C          1.58826        3.38136       -0.00000
C          4.38476        1.03155       -0.00000
N          5.54749        0.98828       -0.00000
H          0.64137       -0.84249       -0.00000
H          1.03847        4.29411        0.00000
