20
-1907.37
C          2.38064       -1.31178       -0.54940
C          1.93153        0.00904        0.05920
C          3.09801        0.91980        0.41361
C          3.85638        0.51877        1.65491
C          3.85694        1.59588       -0.71903
N          2.89215        2.34176        0.07478
C          3.48871        3.32475        0.96926
H          1.50994       -1.91683       -0.82015
H          2.98667       -1.89168        0.15207
H          2.97605       -1.14870       -1.45288
H          1.33790       -0.18616        0.96046
H          1.25933        0.50621       -0.65248
H          4.79989        1.06104        1.77284
H          4.11290       -0.54540        1.62867
H          3.24496        0.69468        2.54673
H          3.56012        1.38892       -1.74055
H          4.91288        1.80317       -0.59634
H          2.96945        3.32487        1.93347
H          3.36215        4.32151        0.53363
H          4.56088        3.19339        1.15272
