18
-1751.31
C          3.18371       -1.08095       -0.68266
C          2.61840       -0.11653        0.35276
C          3.13054        1.32594        0.18691
C          2.42182        2.25167        1.17885
C          4.62346        1.42019        0.39335
C          5.48080        1.87451       -0.53028
H          2.72572       -2.06834       -0.56461
H          4.26554       -1.20212       -0.57141
H          2.97663       -0.73133       -1.69898
H          2.85361       -0.49233        1.35668
H          1.52469       -0.12184        0.26377
H          2.87521        1.66688       -0.82507
H          2.61230        1.95226        2.21617
H          1.33812        2.23519        1.01826
H          2.75892        3.28789        1.06026
H          5.01340        1.09559        1.35670
H          5.14422        2.21019       -1.50602
H          6.54576        1.91916       -0.32461
