15
-1527.58
C          0.99629       -0.00786        0.00376
C          2.51905       -0.00612       -0.09204
O          2.91783       -1.16112       -0.88260
C          3.30444       -0.62098       -2.09113
C          3.40234        0.70244       -2.13680
C          3.07035        1.24677       -0.80213
O          4.27400        1.70730       -0.20076
H          0.63900        0.83386        0.60414
H          0.64695       -0.93888        0.46254
H          0.53312        0.04635       -0.98728
H          2.95161       -0.12272        0.90868
H          3.51864       -1.34069       -2.86398
H          3.71677        1.28803       -2.98610
H          2.35346        2.07154       -0.83214
H          4.91463        0.97515       -0.25144
