14
-1453.68
C          1.01134        0.05188        0.09989
C          2.51522       -0.08364       -0.02228
O          3.19938        0.95686        0.73552
C          4.14001       -0.03435        1.23130
C          3.18960       -1.16910        0.83674
C          3.78176       -2.26001        0.11239
N          4.25634       -3.14646       -0.47004
H          0.50994       -0.79220       -0.38423
H          0.66631        0.97050       -0.38535
H          0.69175        0.08195        1.14669
H          2.83908       -0.05152       -1.07147
H          5.09225        0.02918        0.69346
H          4.31629        0.07422        2.30517
H          2.57263       -1.50222        1.68069
