16
-1587.14
O          1.10620        0.02916        0.39441
C          2.50339        0.02052        0.10348
C          2.86149       -1.29840       -0.60005
C          2.61762       -1.01461       -2.05557
N          3.61279       -0.35672       -2.88856
C          2.60411        0.47202       -2.24860
C          2.84092        1.12208       -0.91535
H          0.88992        0.89372        0.78387
H          3.04054        0.14276        1.04879
H          2.23903       -2.12881       -0.25311
H          3.91598       -1.55073       -0.43843
H          1.84547       -1.60673       -2.52633
H          4.51726       -0.29388       -2.42017
H          1.82310        0.90924       -2.85405
H          3.89070        1.42401       -0.82560
H          2.20532        2.00435       -0.79205
