16
-1586.25
C          0.99198        0.05948        0.02797
C          2.50128       -0.01099       -0.12693
C          3.16144        1.33748        0.07180
O          2.55365        2.38345        0.26924
C          4.64107        1.36473       -0.07908
C          5.48202        1.91290        1.04548
N          5.40685        0.47713        0.80521
H          0.54601       -0.92614       -0.13443
H          0.55406        0.75667       -0.69296
H          0.71768        0.39865        1.03197
H          2.75034       -0.36978       -1.13211
H          2.90494       -0.71741        0.60607
H          5.00808        1.49171       -1.09014
H          4.97941        2.28104        1.93249
H          6.41468        2.40603        0.80096
H          6.25559        0.14621        0.34248
