14
-1371.98
C          5.76545       -0.39505        1.02759
O          6.22503        0.93429        0.81099
N          5.12836        1.73357        0.45640
C          5.50357        2.95638        0.22388
C          6.91413        3.47045        0.29992
C          4.42115        3.92289       -0.19602
O          4.67252        5.07986       -0.49328
H          4.99606       -0.41060        1.80597
H          6.61171       -1.00402        1.35636
H          5.36969       -0.81242        0.09659
H          7.37997        3.14730        1.23507
H          6.94884        4.56157        0.26713
H          7.48509        3.07325       -0.54393
H          3.40705        3.49377       -0.20925
