16
-1503.28
C          1.31122       -0.06359        1.17138
C          2.07717        0.13876       -0.12268
C          3.20571        1.12627        0.06025
O          2.70412        2.38496        0.18144
C          3.52549        3.50484        0.53072
N          4.43139        0.69934        0.07345
O          5.39802        1.69414        0.19530
H          0.53520       -0.82411        1.03979
H          0.82603        0.86440        1.49213
H          1.97774       -0.38648        1.97795
H          1.41082        0.50257       -0.91236
H          2.49127       -0.81761       -0.46052
H          2.86142        4.35335        0.71960
H          4.17947        3.77030       -0.30422
H          4.08387        3.30909        1.45047
H          6.22895        1.18482        0.15248
