18
-1716.
C          3.96216       -1.03435        0.76620
O          2.92099       -0.33352        0.09725
C          3.13380        0.98997       -0.17860
C          4.22102        1.73954        0.05924
C          4.40090        3.19755       -0.27091
C          3.16513        3.92749       -0.79941
N          4.89069        3.87418        0.93056
H          3.63389       -2.06787        0.91117
H          4.15437       -0.59956        1.75295
H          4.87607       -1.05311        0.16197
H          2.23950        1.37907       -0.65523
H          5.09427        1.28687        0.52220
H          5.18718        3.26291       -1.03238
H          2.33853        3.90419       -0.07962
H          2.81407        3.48026       -1.73632
H          3.39367        4.97916       -1.00955
H          4.14201        3.90187        1.62294
H          5.09549        4.84639        0.70686
