17
-1650.61
O          2.79355        2.56794        2.05817
C          2.59121        1.27314        1.49208
C          3.11969        1.22727        0.05849
C          4.63201        1.28744       -0.03221
C          5.36635        0.17374       -0.18907
C          5.26860        2.65411       -0.01386
O          5.29615        3.16591        1.30612
H          2.43588        2.53020        2.96497
H          1.51413        1.07427        1.49398
H          3.08602        0.52977        2.12464
H          2.69498        2.05346       -0.52497
H          2.76368        0.30167       -0.41094
H          4.91223       -0.81184       -0.22361
H          6.44911        0.21821       -0.26790
H          4.72108        3.35072       -0.65732
H          6.30051        2.62136       -0.38117
H          4.37582        3.11360        1.63959
