11
-1183.96
O          2.77239       -1.07119        0.02289
N          2.11489       -0.02440        0.00662
C          2.86831        1.15083        0.00800
C          2.32296        2.41286       -0.00836
N          3.35998        3.31276       -0.00124
C          4.55402        2.63429        0.01942
C          4.27598        1.28285        0.02558
H          1.29555        2.74965       -0.02435
H          3.26056        4.32064       -0.00988
H          5.49481        3.16927        0.02793
H          5.00644        0.48415        0.04101
