11
-1302.02
C          0.98208       -0.08065       -0.00295
C          2.17942        0.00610        0.00025
C          3.59024        0.10880        0.00395
C          4.42957        1.19688        0.00317
C          5.74609        0.67050        0.00829
C          5.61232       -0.69978        0.01157
O          4.29812       -1.04985        0.00881
H         -0.07943       -0.16415       -0.00557
H          4.13186        2.23563       -0.00045
H          6.67687        1.22001        0.00943
H          6.31358       -1.52268        0.01576
