12
-1216.27
N          4.83101       -2.22995       -0.48340
C          4.28279       -1.24086       -0.26899
C          3.59501        0.00000        0.00000
N          4.50508        1.15996        0.00549
C          4.57019        1.87207       -1.26850
C          3.81466        2.44233       -0.09489
H          3.12800       -0.06051        0.99072
H          2.76960        0.12084       -0.71447
H          4.01006        1.49405       -2.11495
H          5.53169        2.30801       -1.51411
H          4.26664        3.26451        0.44818
H          2.73191        2.45489       -0.13016
