12
-1304.91
O          1.21604       -0.06965        0.66676
C          2.35055       -0.02463        0.20437
C          3.11679        1.25114       -0.04906
N          4.34985        0.72956       -0.58265
C          4.43300       -0.64170       -0.68007
O          5.39735       -1.25219       -1.10555
C          3.15171       -1.23505       -0.17908
H          3.32203        1.78658        0.87876
H          2.62891        1.86995       -0.80308
H          5.13216        1.30237       -0.87827
H          2.65242       -1.78107       -0.98134
H          3.34391       -1.85467        0.69874
