15
-1531.96
C          0.98649        0.08988       -0.00669
C          2.47142        0.00066       -0.00059
N          3.26523        1.02704       -0.00748
N          4.60983        0.54404       -0.00019
C          4.57128       -0.75236        0.00971
C          5.77303       -1.62833        0.02004
C          3.18803       -1.30197        0.01095
H          0.66604        1.13499        0.00196
H          0.58946       -0.41632        0.87712
H          0.59841       -0.39889       -0.90416
H          6.68492       -1.02523        0.01206
H          5.75948       -2.27250       -0.86246
H          5.76030       -2.25008        0.91851
H          2.98566       -1.88012       -0.89098
H          2.98165       -1.86615        0.92065
