15
-1614.03
C          0.94240       -0.03689        0.00912
C          2.43519       -0.00238        0.01696
C          3.13902        1.13799        0.00000
C          4.54502        1.13799        0.00000
C          5.73518        1.13799        0.00000
C          7.14118        1.13799        0.00000
C          7.84433        2.27530        0.00003
H          0.59361       -1.07218       -0.04135
H          0.54166        0.49366       -0.86009
H          0.53800        0.40902        0.92468
H          2.94918       -0.96023        0.03380
H          2.63155        2.09835       -0.01656
H          7.65478        0.18121       -0.00003
H          7.35974        3.24702        0.00007
H          8.92906        2.25483        0.00003
