16
-1612.99
C          3.05562       -1.18011       -0.47517
C          2.44868        0.06280        0.15614
C          3.44718        1.17405        0.25496
N          3.68090        2.05873       -0.87911
C          2.98725        2.61378        0.28491
C          3.69438        3.54533        1.10970
C          4.28616        4.32949        1.80187
H          2.31545       -1.98486       -0.52102
H          3.91336       -1.53626        0.10493
H          3.40199       -0.97444       -1.49332
H          2.09354       -0.18222        1.16365
H          1.57087        0.36992       -0.42518
H          4.32189        0.90325        0.83669
H          3.01797        1.88765       -1.63488
H          1.92988        2.81473        0.14425
H          4.81854        5.02400        2.40797
