16
-1509.69
C          0.87084       -0.41189       -0.36959
C          1.65337        0.46378        0.59191
C          2.96354        0.89322       -0.03671
N          3.02570        1.96750       -0.76075
N          4.10750        0.16568        0.10331
C          4.38867       -0.74776        1.17925
H         -0.09751       -0.68283        0.06224
H          1.41677       -1.33484       -0.59359
H          0.69021        0.10571       -1.31775
H          1.83560       -0.07247        1.52734
H          1.06821        1.35630        0.83965
H          2.10536        2.41619       -0.80971
H          4.91145        0.66157       -0.27201
H          4.32589       -0.24000        2.14592
H          5.40066       -1.14794        1.06984
H          3.69202       -1.59161        1.16964
