16
-1614.22
C          1.00000        0.00000        0.00000
C          2.44400        0.00000        0.00000
C          3.63416        0.00000        0.00000
C          5.08131        0.01066       -0.00017
C          5.76321        1.01966        0.94884
N          6.77620       -0.01741        1.27339
C          5.78107       -1.04772        0.88122
H          0.60597        1.02086        0.01177
H          0.60602       -0.52058        0.87826
H          0.60592       -0.50028       -0.88993
H          5.50066        0.04736       -1.01548
H          5.17069        1.32714        1.82006
H          6.16878        1.91730        0.47199
H          7.58851        0.01180        0.65623
H          6.20153       -1.90418        0.34584
H          5.19404       -1.42153        1.72899
