14
-1400.81
N          2.05321       -0.86754        1.15800
C          1.49843        0.03723        0.15209
C          2.40955        1.21825       -0.07815
C          2.02301        2.49467        0.05167
O          3.76760        0.93933       -0.34879
C          3.98892        0.25984       -1.51251
O          3.19019       -0.01588       -2.39501
H          1.38375       -1.61610        1.32732
H          2.14030       -0.36051        2.03773
H          0.51135        0.37379        0.48981
H          1.33936       -0.51356       -0.77937
H          0.99920        2.75673        0.29489
H          2.73003        3.30628       -0.08765
H          5.06186        0.01531       -1.56213
