17
-1778.55
C          0.78995        0.50627       -0.04391
C          2.08116        0.21251        0.16001
C          3.27305        1.13182        0.04037
C          3.97968        1.34654        1.39092
C          3.54557        2.72758        1.88710
C          3.10868        3.40946        0.63475
C          2.95626        2.53983       -0.37072
H          0.02439       -0.25518        0.07313
H          0.45745        1.50097       -0.32319
H          2.32462       -0.81240        0.43944
H          3.97685        0.68828       -0.67426
H          5.06673        1.34624        1.23471
H          3.76598        0.56732        2.13061
H          4.37669        3.25182        2.36843
H          2.71122        2.65907        2.59360
H          2.90880        4.46975        0.56781
H          2.62376        2.80496       -1.36498
