14
-1464.74
C          1.00000        0.00000        0.00000
C          2.44400        0.00000        0.00000
C          3.63416        0.00000        0.00000
C          5.07816        0.00000        0.00000
C          5.66207        1.39261       -0.14110
N          5.42181        2.02049       -1.33199
O          6.35654        1.92853        0.71698
H          0.60606        1.02091        0.01128
H          0.60590       -0.52019        0.87843
H          0.60595       -0.50058       -0.88978
H          5.47028       -0.61560       -0.81755
H          5.45997       -0.43177        0.93209
H          4.68271        1.70951       -1.94823
H          5.74388        2.97599       -1.41527
