12
-1298.63
O          1.15584       -0.07523        0.45286
C          2.32247        0.01207        0.12233
C          3.12556        1.27245        0.00524
C          4.34979        0.78578       -0.76246
N          4.44229       -0.63167       -0.54755
C          3.23468       -1.17466       -0.18067
O          2.93962       -2.34589       -0.11793
H          3.39599        1.61011        1.00998
H          2.58623        2.05326       -0.53425
H          4.22839        0.95112       -1.83859
H          5.27207        1.27138       -0.43258
H          5.15792       -1.23531       -0.93656
