14
-1430.64
N          1.76641       -1.70211        0.21093
C          2.25438       -0.64440        0.91662
O          1.86377       -0.39158        2.04988
C          3.33562        0.14665        0.21820
C          4.71072       -0.36998        0.60848
C          5.03635       -1.70522       -0.01699
O          4.31172       -2.29090       -0.81790
H          2.34325       -2.11553       -0.52124
H          1.12946       -2.32018        0.69494
H          3.22541        1.19410        0.52150
H          3.18221        0.11083       -0.86665
H          4.79793       -0.47961        1.69414
H          5.47922        0.33457        0.27307
H          6.00378       -2.14169        0.28696
