10
-1018.01
O          1.17569       -0.20535        0.29116
C          2.36277       -0.04485        0.15677
C          3.34398        1.11916       -0.06406
C          4.29463        0.01231       -0.55523
N          3.37303       -0.95222        0.05595
H          3.64289        1.62741        0.85723
H          3.03246        1.84050       -0.82122
H          4.36536       -0.10574       -1.64051
H          5.28775        0.00622       -0.10089
H          3.12315       -1.87980       -0.25921
