15
-1515.32
C          2.08746       -0.01953        0.42565
C          2.08602        1.22400       -0.07019
O          3.10823        2.12572       -0.13763
C          4.36876        1.72888        0.41000
C          5.35700        2.85333        0.15267
C          6.71486        2.54938        0.71996
O          6.99492        1.53073        1.34337
H          1.17964       -0.61347        0.39854
H          2.96402       -0.48265        0.86169
H          1.19357        1.66274       -0.50370
H          4.72117        0.81027       -0.07523
H          4.26552        1.55413        1.48824
H          4.99805        3.78948        0.59385
H          5.46304        3.02528       -0.92414
H          7.47972        3.32494        0.54251
