15
-1458.71
C          1.52118       -0.32313        0.34331
C          3.02010       -0.21566        0.12760
C          3.44317        1.17169       -0.31267
O          2.66346        2.10316       -0.48117
N          4.80408        1.27705       -0.51003
C          5.40711        2.53754       -0.86023
H          1.25332       -1.33517        0.66181
H          0.97422       -0.09825       -0.57838
H          1.18342        0.37869        1.11305
H          3.33191       -0.93341       -0.63937
H          3.54139       -0.45859        1.06025
H          5.40288        0.51830       -0.21139
H          4.82734        3.02594       -1.64810
H          6.42644        2.35250       -1.20695
H          5.42638        3.17655        0.02659
