16
-1608.61
C          1.01904        0.00262       -0.08543
C          2.50965        0.02524       -0.03592
C          3.36569       -0.73958       -1.03200
C          2.75546       -1.51029       -2.07494
C          2.24862       -2.15820       -2.95068
N          3.23630        0.71838       -1.09130
C          4.43079        1.41515       -0.62776
H          0.61201        0.76190        0.59036
H          0.64516       -0.97287        0.24161
H          0.62573        0.20426       -1.08749
H          2.87248        0.08577        0.98405
H          4.30474       -1.13793       -0.65823
H          1.79676       -2.72301       -3.73166
H          4.19613        2.47354       -0.47509
H          5.21477        1.35781       -1.39043
H          4.84541        1.02799        0.31087
