19
-1791.51
C          0.69636        0.57357       -1.00920
C          2.01389        0.65119       -0.30819
C          3.07473        1.32292       -0.78646
C          4.40558        1.42579       -0.08854
N          5.42334        0.76904       -0.92271
C          4.78549        2.90983        0.18322
N          5.24487        3.63096       -1.01933
H          0.42735       -0.47334       -1.18013
H          0.71195        1.08296       -1.97808
H         -0.08154        1.03350       -0.39280
H          2.08737        0.12476        0.64067
H          2.98683        1.85846       -1.73060
H          4.36689        0.90537        0.87610
H          5.42089        1.23951       -1.82760
H          5.11394       -0.18532       -1.10614
H          5.60088        2.93646        0.91797
H          3.93621        3.44593        0.62112
H          6.09822        3.16968       -1.33518
H          5.52501        4.57125       -0.74449
