14
-1289.5
C          0.98259        0.03191        0.02100
N          2.44924       -0.00792        0.05376
C          3.09163        0.99393        0.96455
C          4.25521        0.03590        1.28783
S          3.15664       -1.29614        0.90471
O          2.32961       -1.65409        2.03312
O          3.72030       -2.23787       -0.02896
H          0.60146       -0.81717       -0.55335
H          0.66052        0.94905       -0.48161
H          0.54390        0.02182        1.02261
H          2.47336        1.25725        1.83135
H          3.38060        1.91151        0.44466
H          5.10608        0.09060        0.60287
H          4.60151        0.04776        2.32361
