17
-1785.13
C          2.98247       -1.22555       -0.59912
C          2.44306        0.00739        0.11420
C          3.41358        1.19336        0.06665
C          2.88303        2.37739        0.83810
C          2.76712        3.44057        0.02653
C          3.19572        3.07682       -1.29962
C          3.57541        1.79129       -1.30994
H          2.28468       -2.06101       -0.48411
H          3.94662       -1.53003       -0.17998
H          3.11247       -1.04489       -1.67015
H          2.24517       -0.25785        1.16077
H          1.47531        0.27866       -0.32783
H          4.39287        0.90396        0.46612
H          2.64232        2.36444        1.89070
H          2.41787        4.42315        0.30456
H          3.20947        3.75446       -2.13989
H          3.95498        1.26117       -2.17057
