16
-1577.09
C          1.06585       -0.34310       -0.16092
N          2.52531       -0.40807       -0.20221
C          3.06304       -0.49723       -1.55685
C          3.13322        0.79505       -0.77324
C          4.42984        1.27087       -0.19590
C          5.07835        2.37011       -0.99975
O          4.60044        2.87205       -2.01261
H          0.74800        0.21525        0.72538
H          0.65754       -1.35524       -0.07985
H          0.60959        0.13275       -1.03723
H          2.37387       -0.55733       -2.39124
H          3.95954       -1.09565       -1.66632
H          2.47385        1.60994       -1.04961
H          5.15760        0.45357       -0.11765
H          4.25982        1.66592        0.81187
H          6.04484        2.72697       -0.60379
