17
-1568.06
C          1.04616        0.02294       -0.50383
N          2.48799        0.20511       -0.48044
C          2.98806        1.31461       -0.02982
C          2.11205        2.43639        0.51323
N          4.36832        1.51865       -0.03049
C          5.23831        0.63769       -0.79821
O          4.74057        2.86271       -0.16967
H          0.81265       -0.87686       -1.08210
H          0.53039        0.85754       -0.98977
H          0.64955       -0.12670        0.50529
H          1.28721        2.03700        1.10807
H          1.71042        3.01262       -0.32495
H          2.68392        3.10421        1.16323
H          5.09878       -0.40601       -0.49896
H          6.28769        0.89351       -0.61822
H          5.03819        0.73229       -1.87046
H          5.16066        3.05597        0.68931
