14
-1402.82
C          1.00000        0.00000        0.00000
C          2.44400        0.00000        0.00000
C          3.63416        0.00000        0.00000
C          5.07816        0.00000        0.00000
C          5.63976       -0.73989       -1.20381
O          5.55725        1.34149       -0.02720
H          0.60598        1.02087        0.01163
H          0.60592       -0.52053        0.87824
H          0.60601       -0.50032       -0.88995
H          5.46053       -0.46199        0.91595
H          5.32144       -0.27157       -2.14360
H          5.31915       -1.78754       -1.21829
H          6.73558       -0.71041       -1.19488
H          5.07339        1.79741       -0.73683
