18
-1697.32
C          2.11086       -0.71356       -1.43965
O          3.03807       -0.31576       -0.43661
N          3.55250        0.94182       -0.78419
C          4.39434        1.30868        0.12548
C          5.11489        2.63038        0.02084
C          4.75033        3.49423        1.22160
C          6.61569        2.37698       -0.04431
H          1.71556       -1.69778       -1.17451
H          2.60977       -0.78388       -2.41122
H          1.28085       -0.00216       -1.49163
H          4.61613        0.67629        1.00430
H          4.79468        3.13691       -0.89759
H          5.04781        3.01827        2.16257
H          3.66839        3.66009        1.26591
H          5.24138        4.47093        1.16283
H          6.97377        1.85954        0.85252
H          7.16657        3.31824       -0.13841
H          6.86559        1.74931       -0.90651
