16
-1488.97
N          1.04098        0.00618        0.14935
C          2.48032        0.02024       -0.07923
C          3.13596        1.06531        0.84900
C          4.13173       -0.02413        1.30395
N          5.32064        0.01183        0.44909
C          3.14189       -1.08473        0.77254
H          0.56395       -0.77904       -0.29193
H          0.56714        0.84501       -0.18439
H          2.79509        0.05995       -1.12592
H          2.50414        1.42378        1.67359
H          3.55792        1.94281        0.34761
H          4.34697       -0.05660        2.37508
H          5.14203        0.03990       -0.55268
H          5.95155       -0.77354        0.60018
H          3.56903       -1.92192        0.21005
H          2.51299       -1.50445        1.56984
