15
-1549.
C          1.02584       -0.02295       -0.00669
N          2.46650        0.04521        0.00041
C          3.23571        1.17052        0.00429
C          4.53986        0.73516        0.01063
C          4.45454       -0.67639        0.01003
C          5.57059       -1.65164        0.01530
N          3.18202       -1.09296        0.00345
H          0.61313        0.98887        0.00098
H          0.70166       -0.56462        0.88547
H          0.71009       -0.54794       -0.91174
H          2.80612        2.16158        0.00225
H          5.43072        1.34669        0.01509
H          5.20543       -2.68399        0.02321
H          6.19762       -1.50752        0.90111
H          6.19496       -1.51990       -0.87429
