16
-1587.07
C          1.27628       -0.42988        0.03503
N          2.72558       -0.28257       -0.00806
C          3.09945        1.10483       -0.25862
C          4.59187        1.21298       -0.23225
C          5.32418        1.64308       -1.26955
C          6.79424        1.71857       -1.17005
O          7.47389        2.10619       -2.11296
H          1.02227       -1.47827        0.22011
H          0.81423       -0.13437       -0.91284
H          0.84124        0.16279        0.84621
H          3.09082       -0.86392       -0.76236
H          2.69549        1.75648        0.52541
H          2.69653        1.44601       -1.21989
H          5.06894        0.92201        0.70168
H          4.89233        1.94403       -2.21665
H          7.23937        1.40921       -0.21021
