15
-1573.84
C          1.14321        0.64918       -1.75977
C          1.55193        1.04192       -0.54003
C          0.45207        1.23546        0.45895
O          0.66342        1.52640        1.63046
C          2.96430        1.22395       -0.15776
C          3.89407        2.02626       -1.03561
C          3.43538        2.59023        0.27532
H          1.86736        0.45741       -2.54595
H          0.09958        0.50261       -2.01805
H         -0.57529        1.09368        0.08223
H          3.38672        0.37579        0.37364
H          3.51313        2.49021       -1.93813
H          4.92443        1.69722       -1.11222
H          4.14655        2.63831        1.09234
H          2.73319        3.41655        0.26055
