18
-1766.1
C          0.77418       -0.29050       -0.54516
C          2.19057       -0.12856       -0.04693
C          3.29166       -0.61120       -0.97997
N          3.02662        0.80787       -0.81830
C          2.41044       -0.14860        1.48324
C          1.78410        0.88405        2.39374
C          1.36754       -0.55274        2.49907
H          0.70697       -0.21058       -1.63643
H          0.12291        0.48019       -0.11903
H          0.38337       -1.27313       -0.26250
H          3.01635       -1.04181       -1.93470
H          4.21384       -0.98819       -0.55612
H          3.71262        1.24945       -0.20494
H          3.42761       -0.43363        1.76367
H          1.08089        1.58801        1.96377
H          2.39572        1.29867        3.18633
H          1.69867       -1.11546        3.36489
H          0.37154       -0.81546        2.16453
