15
-1517.59
C          1.65955       -1.06952        1.28959
C          1.73838        0.13247        0.38504
O          0.74552        0.55038       -0.21424
C          3.08170        0.84435        0.30566
O          4.15171       -0.00695       -0.07473
C          4.31855       -0.28755       -1.39959
C          3.59391        0.11393       -2.45111
H          2.35370       -1.84095        0.94845
H          0.64500       -1.47754        1.27151
H          1.90015       -0.77089        2.31331
H          3.30150        1.21826        1.31199
H          3.01167        1.72792       -0.33893
H          5.18483       -0.92999       -1.52224
H          2.72074        0.75084       -2.37223
H          3.87320       -0.20270       -3.45174
