13
-1362.8
C          0.99971       -0.06129       -0.00839
C          2.52000        0.00000        0.00000
O          3.01666       -0.67572       -1.15056
C          3.00202        1.36117        0.00000
C          3.39930        2.48307        0.00000
C          3.90479        3.83407       -0.00150
O          3.14211        4.78774       -0.02651
H          0.57353        0.42722        0.87412
H          0.65943       -1.10233       -0.03074
H          0.58676        0.42360       -0.90095
H          2.89612       -0.53615        0.87738
H          2.69959       -0.18568       -1.92842
H          5.00369        3.93060        0.01827
