14
-1486.36
C          1.09558       -0.00606       -0.16539
N          2.51510       -0.01108        0.07934
C          3.26863       -1.14254        0.19560
C          4.54265       -0.82067        0.42901
C          4.71665        0.67271        0.48686
C          3.28655        1.13734        0.24123
O          2.91147        2.29848        0.19961
H          0.72446        1.01749       -0.26633
H          0.58746       -0.49003        0.67391
H          0.88730       -0.55654       -1.08757
H          2.83605       -2.12899        0.10179
H          5.34865       -1.52684        0.56148
H          5.05729        0.99877        1.47211
H          5.37409        1.03139       -0.30820
