19
-1850.18
C          0.96066       -0.11000       -0.02959
C          2.48308       -0.08071        0.00149
O          2.97813       -0.85337       -1.08965
C          3.02041        1.35156       -0.08131
C          4.54999        1.39381       -0.00233
C          5.05762        2.80702       -0.06203
C          5.76924        3.39068        0.91002
H          0.53540        0.44042        0.81431
H          0.59905       -1.14283        0.00791
H          0.57813        0.32342       -0.95988
H          2.83226       -0.55696        0.92454
H          2.64928       -0.45343       -1.91320
H          2.59162        1.95016        0.73199
H          2.70159        1.80821       -1.02697
H          4.98754        0.83727       -0.83951
H          4.88508        0.90115        0.91895
H          4.83661        3.37249       -0.96503
H          6.02529        2.86535        1.82527
H          6.11755        4.41368        0.80582
