13
-1396.32
C          1.00000        0.00000        0.00000
C          2.19016        0.00000        0.00000
C          3.59616        0.00000        0.00000
C          4.30563        1.07281       -0.37958
C          5.76823        1.17511       -0.38225
C          6.55379        0.42018       -1.42407
O          6.47684        1.84901       -1.43426
H         -0.06520        0.00208       -0.00114
H          4.10375       -0.89995        0.33422
H          3.77715        1.96686       -0.70704
H          6.20299        1.25801        0.60940
H          6.02754       -0.10955       -2.20891
H          7.49477       -0.02796       -1.12960
