23
-2190.69
C          0.99291       -0.13611       -0.15963
C          2.51453       -0.11381       -0.17265
C          3.05024        1.32033       -0.19893
C          4.58823        1.41434       -0.10271
C          5.27626        0.66867       -1.25240
C          5.06887        2.88140       -0.10031
C          4.62535        3.67433        1.12033
H          0.62923       -1.16874       -0.14105
H          0.58693        0.35075       -1.05176
H          0.59904        0.37816        0.72287
H          2.85886       -0.66866       -1.05128
H          2.89000       -0.63560        0.71520
H          2.60156        1.86362        0.64058
H          2.70800        1.81845       -1.11520
H          4.90809        0.94663        0.83742
H          4.92668        1.03116       -2.22503
H          5.08907       -0.40779       -1.19911
H          6.36238        0.80475       -1.21132
H          4.72199        3.39155       -1.00724
H          6.16574        2.89967       -0.12979
H          3.54163        3.82309        1.13594
H          5.09106        4.66510        1.11180
H          4.92142        3.17010        2.04600
