15
-1496.97
C          1.42057       -0.43330        0.99329
C          2.31303       -0.14426        0.03778
C          2.93875        1.20454       -0.16083
C          4.42541        1.06676        0.03276
N          5.22246        0.97353       -0.98339
N          6.54078        0.83520       -0.56298
C          7.31471        0.60734       -1.57010
H          1.00535       -1.43334        1.07715
H          1.08090        0.31090        1.70681
H          2.61552       -0.92658       -0.65716
H          2.56483        1.94159        0.55718
H          2.72685        1.56326       -1.17324
H          4.79431        1.02166        1.07339
H          8.39558        0.47292       -1.41159
H          6.94703        0.53389       -2.60812
