17
-1667.66
N          1.68163       -0.69998        1.68139
C          2.10399       -0.64200        0.38961
N          1.77065       -1.54082       -0.47283
C          3.00124        0.49617       -0.04596
C          4.46480        0.09797        0.12233
C          5.38687        1.21504       -0.27897
C          6.25548        1.80803        0.54955
H          1.72928        0.15691        2.22244
H          0.85373       -1.25029        1.87141
H          1.19744       -2.25629       -0.02229
H          2.76903        1.38513        0.55245
H          2.78379        0.73648       -1.09371
H          4.68763       -0.77926       -0.49739
H          4.65108       -0.20413        1.16072
H          5.34104        1.53871       -1.31735
H          6.34639        1.51219        1.58999
H          6.90312        2.60470        0.19621
