15
-1461.5
C          3.06807        0.26539        2.49804
N          2.53750        1.22010        1.52718
N          3.08039        0.97062        0.24672
C          4.12778        1.74951       -0.21547
O          4.67282        2.63050        0.44208
C          4.52753        1.40848       -1.60524
C          5.53680        2.05960       -2.20055
H          2.63211        0.46447        3.48142
H          4.15664        0.34642        2.58561
H          2.80944       -0.76121        2.21907
H          2.85437        2.15943        1.80708
H          2.60467        0.30618       -0.35606
H          3.99149        0.62630       -2.12493
H          6.08439        2.84678       -1.68947
H          5.83592        1.81666       -3.21440
