19
-1785.21
C          2.44901       -0.48537       -1.44235
C          2.53902        0.02917       -0.00699
N          3.23671       -0.96159        0.82770
C          3.28395        1.37064        0.01722
C          2.59737        2.61258       -0.60677
C          3.18995        3.36259        0.60093
N          3.16546        2.07669        1.33036
H          1.89788        0.21937       -2.07480
H          1.92720       -1.44812       -1.48522
H          3.44291       -0.61576       -1.88678
H          1.52286        0.15491        0.38618
H          4.13581       -1.19269        0.41007
H          2.69845       -1.82619        0.84096
H          4.32970        1.26926       -0.31268
H          1.50124        2.57738       -0.61777
H          2.96000        2.92218       -1.58995
H          4.19808        3.75971        0.43584
H          2.55977        4.14671        1.02818
H          3.93866        1.89657        1.96773
