16
-1594.02
C          1.50499       -0.30894        0.36821
O          2.89154        0.00016        0.29214
C          3.11101        1.40421        0.18185
C          4.61423        1.66207        0.11270
C          5.37530        1.13661        1.33153
C          5.02523        1.87303        2.55230
N          4.74358        2.46993        3.50820
H          1.39835       -1.39425        0.44510
H          0.98708        0.03063       -0.53393
H          1.05888        0.15034        1.25553
H          2.66391        1.92043        1.03874
H          2.63668        1.77537       -0.73394
H          4.79220        2.73677       -0.01346
H          5.01527        1.15686       -0.77484
H          6.45058        1.24711        1.14740
H          5.19144        0.06587        1.47255
