16
-1478.64
C          0.98537       -0.22515        0.12074
C          2.50122       -0.13816        0.21366
C          2.97794        1.31328        0.16228
N          4.43986        1.37214        0.24630
N          4.96982        2.61769        0.19570
C          6.25735        2.63444        0.29471
H          0.66133       -1.26876        0.17600
H          0.62731        0.19201       -0.82554
H          0.50992        0.32274        0.93995
H          2.94208       -0.71044       -0.61215
H          2.83172       -0.60974        1.14747
H          2.54052        1.87542        0.99560
H          2.64266        1.78044       -0.77151
H          4.84090        0.75663       -0.46566
H          6.79072        3.59719        0.26249
H          6.87564        1.72759        0.41794
