10
-988.51
O          2.21063       -1.00581       -0.46088
C          2.04351        0.15181       -0.09245
C          3.17254        1.10605       -0.07848
C          3.33741        2.08544       -1.20882
N          2.79745        2.51733        0.07686
H          1.06235        0.52151        0.24868
H          4.06033        0.77856        0.44862
H          2.63746        2.04761       -2.03502
H          4.33555        2.42209       -1.45978
H          3.50616        3.02009        0.61571
