15
-1576.63
O          1.06297       -0.20366        0.14098
C          2.41124        0.16187       -0.08090
C          2.70398        1.43285        0.66604
C          3.68106        1.22132        1.56294
C          4.18315       -0.16111        1.57018
C          3.27884       -1.29330        1.96763
C          3.34582       -0.87135        0.51910
H          0.99569       -1.14923       -0.06707
H          2.58950        0.28652       -1.15361
H          2.18019        2.36230        0.50477
H          4.06266        1.97874        2.23649
H          5.25541       -0.30588        1.56071
H          3.74168       -2.23353        2.24409
H          2.38076       -1.06660        2.53258
H          3.83876       -1.50357       -0.20434
