10
-1125.81
O          2.66945       -1.13491        0.06693
C          2.14473       -0.02884        0.00342
C          2.89253        1.19674        0.00261
C          2.39082        2.47261       -0.06524
O          3.41199        3.36613       -0.04091
N          4.61578        2.68414        0.04432
C          4.28618        1.38998        0.06925
H          1.04784        0.07421       -0.05735
H          1.40208        2.90238       -0.13099
H          5.06986        0.64701        0.13448
