15
-1500.64
C          1.14545       -0.68338       -1.06173
C          2.30003       -0.36698       -0.15132
C          2.56345       -1.12147        0.92613
N          3.10433        0.72175       -0.41444
C          3.03447        1.57446       -1.48724
N          3.95370        2.57881       -1.40000
O          2.28427        1.51358       -2.45000
H          1.50017       -0.92648       -2.06855
H          0.45060        0.16098       -1.11662
H          0.57325       -1.54742       -0.70541
H          1.95162       -1.98567        1.16786
H          3.38869       -0.91036        1.59767
H          3.89578        0.87004        0.19474
H          4.12031        2.97551       -0.48749
H          3.85123        3.26150       -2.14143
