17
-1611.86
C          1.34730       -0.50679       -0.10443
C          2.86359       -0.40488       -0.13430
C          3.32971        1.04351       -0.01888
C          4.84118        1.16139       -0.02242
O          5.61045        0.21179       -0.14012
N          5.27455        2.47489        0.12158
N          6.65527        2.75919        0.07606
H          1.03592       -1.55250       -0.19047
H          0.90001        0.05050       -0.93358
H          0.94622       -0.10926        0.83337
H          3.23799       -0.84495       -1.06635
H          3.28196       -0.99924        0.68677
H          2.95342        1.48406        0.91184
H          2.93864        1.62967       -0.85894
H          4.61171        3.24744        0.11299
H          7.07818        2.07809       -0.56950
H          7.05168        2.48925        0.98233
