17
-1605.63
C          0.28730        1.20086       -0.25438
N          1.60271        1.83297       -0.19168
C          2.59633        1.02536       -0.26611
N          3.91388        1.38432       -0.23605
C          4.38302        2.70071        0.18745
C          4.01076        3.80266       -0.81306
O          2.68484        4.28220       -0.60758
H         -0.28537        1.46841        0.63887
H          0.31950        0.10768       -0.31775
H         -0.25369        1.57502       -1.12881
H          2.47575       -0.06776       -0.37969
H          4.57286        0.63268       -0.06246
H          5.47519        2.65084        0.25508
H          3.99345        2.92808        1.18583
H          4.10044        3.45668       -1.84804
H          4.67861        4.65945       -0.68020
H          2.12115        3.47890       -0.50790
