20
-1916.53
C          0.94694       -0.02075        0.22820
C          2.44389       -0.00747       -0.07770
C          2.69931        0.01804       -1.58422
C          3.22891        1.07159        0.72197
C          4.12922       -0.02208        1.31954
N          5.42737        0.00089        0.64688
C          3.24169       -1.10412        0.68331
H          0.75573       -0.03921        1.30675
H          0.46733       -0.90281       -0.20940
H          0.45744        0.86944       -0.18091
H          3.76664        0.02352       -1.82151
H          2.25594        0.91071       -2.03826
H          2.25924       -0.86086       -2.06739
H          2.63050        1.58636        1.48361
H          3.72096        1.84458        0.12082
H          4.18745       -0.03896        2.41112
H          5.39047        0.08663       -0.36758
H          6.00055       -0.82007        0.83765
H          3.74355       -1.84915        0.05583
H          2.64985       -1.65243        1.42640
