13
-1341.96
N          1.76252       -0.69848        0.12402
C          2.34265        0.38186       -0.27228
C          2.15212        0.56234       -1.69219
C          1.99026        0.70740       -2.87465
N          3.04767        1.25133        0.52975
C          4.23543        1.92132       -0.01651
C          2.98402        2.69179        0.24850
H          1.93378       -0.76821        1.13214
H          1.83544        0.81732       -3.92207
H          4.50424        1.66756       -1.03196
H          5.04507        1.98338        0.69746
H          2.92240        3.29018        1.14697
H          2.35377        2.99158       -0.57655
