15
-1424.98
N          0.99269       -0.08716       -0.60872
C          2.41272        0.03615       -0.24499
C          3.25697       -0.85173       -1.18874
O          2.85890       -0.66042       -2.55056
C          2.79473        1.48428       -0.36935
C          3.25077        2.24189        0.63758
H          0.44987        0.49329        0.03219
H          0.69082       -1.04539       -0.43067
H          2.55682       -0.30678        0.78639
H          3.10008       -1.90954       -0.95103
H          4.32678       -0.63475       -1.10479
H          1.91976       -0.38480       -2.49179
H          2.69686        1.93143       -1.35800
H          3.37461        1.85019        1.64204
H          3.51250        3.28252        0.46924
