13
-1376.47
C          1.20518       -0.17444       -0.59738
C          2.49838        0.00911       -0.30475
C          3.15653        1.28332       -0.26021
C          4.42054        1.53930        0.01905
O          4.73483        2.87569       -0.02404
C          3.45148        3.43514       -0.38001
O          2.42869        2.42958       -0.53539
H          0.77631       -1.17085       -0.61172
H          0.54600        0.65692       -0.82833
H          3.11084       -0.86193       -0.08146
H          5.22448        0.87111        0.27014
H          3.55522        3.98204       -1.32402
H          3.14233        4.13488        0.40472
