14
-1370.72
C          1.05647        0.02990        0.11700
C          2.54229        0.04722       -0.12345
N          3.13867        1.19866       -0.20953
O          4.52693        1.12433       -0.48393
C          5.16860       -0.02379        0.07168
O          4.64284       -1.22402       -0.47734
C          3.26180       -1.29076       -0.19731
H          0.68174       -0.99622        0.14395
H          0.55245        0.57300       -0.68754
H          0.83798        0.51592        1.07199
H          6.23017        0.02931       -0.18519
H          5.08326       -0.02034        1.16538
H          3.12683       -1.79759        0.76475
H          2.78376       -1.90558       -0.96637
