13
-1412.13
O          0.90681       -0.15133        0.21361
C          2.12692       -0.10282        0.08863
C          2.82834        1.21954       -0.12879
C          4.33773        1.24892        0.02829
C          4.97990       -0.08603       -0.04169
C          4.25875       -1.20302       -0.03069
O          2.86806       -1.24580        0.06083
H          2.39276        1.93669        0.57975
H          2.55996        1.55413       -1.13757
H          4.60252        1.71484        0.98384
H          4.75988        1.89125       -0.75262
H          6.06484       -0.13952       -0.08458
H          4.66544       -2.20565       -0.06208
