12
-1260.78
C          1.00009        0.04357       -0.00803
N          2.43898       -0.03240        0.00073
C          3.25838        1.07371        0.00351
C          4.56250        0.78194        0.00944
S          4.83377       -0.93499        0.01118
C          3.08940       -1.25758        0.00285
O          2.59900       -2.37357       -0.00064
H          0.65908        1.08265        0.00653
H          0.61092       -0.48345        0.86844
H          0.62415       -0.45477       -0.90687
H          2.83555        2.07047        0.00105
H          5.36860        1.50233        0.01258
