18
-1719.6
C          2.99788       -1.21021       -0.48590
C          2.38672        0.01813        0.16948
C          3.34999        1.16931        0.21140
O          4.52682        0.94287        1.01061
C          3.54962        2.03454       -1.00132
C          2.83164        2.59107        0.19667
N          3.49679        3.61966        1.00408
H          2.27244       -2.02950       -0.50964
H          3.88105       -1.55387        0.06272
H          3.30534       -0.99525       -1.51480
H          2.07938       -0.22964        1.19172
H          1.47730        0.29581       -0.37675
H          4.29034        0.84778        1.94887
H          2.96222        1.82937       -1.88854
H          4.55335        2.38183       -1.21711
H          1.75916        2.73501        0.08798
H          4.49140        3.39455        1.07880
H          3.14270        3.60971        1.95885
