19
-1780.77
C          0.99184        0.10495       -0.13751
C          2.47759        0.05311       -0.04031
C          3.32730       -0.82382       -0.94730
C          2.74742       -1.69811       -2.01514
N          3.74751       -1.84737       -3.06898
N          3.27613        0.63326       -1.11671
C          4.48619        1.30268       -0.64897
H          0.61131        0.96120        0.42880
H          0.55507       -0.80288        0.28989
H          0.63597        0.20672       -1.16749
H          2.81318        0.17973        0.98375
H          4.22079       -1.26358       -0.51419
H          1.83377       -1.27738       -2.44671
H          2.50354       -2.68023       -1.59847
H          3.98139       -0.90869       -3.39905
H          3.32064       -2.32165       -3.86194
H          4.25523        2.34351       -0.39970
H          5.23312        1.31107       -1.44951
H          4.94601        0.84176        0.23384
