16
-1562.02
C          0.98403        0.12786       -0.38118
C          2.43362        0.04941        0.00608
N          3.07633       -1.03426        0.31527
O          2.23479       -2.15130        0.26027
C          3.20603        1.31643        0.01728
C          2.79907        2.45031        0.92950
C          4.05457        1.68249        1.21310
H          0.71056        1.14639       -0.66876
H          0.36478       -0.17968        0.46604
H          0.79216       -0.53669       -1.22823
H          2.83723       -2.87639        0.51052
H          3.60571        1.58794       -0.95523
H          1.96110        2.30632        1.60218
H          2.89660        3.46220        0.55328
H          5.00642        2.16559        1.02572
H          4.06143        1.00976        2.06396
