17
-1720.63
C          1.46398        0.31869       -0.24430
C          2.81317       -0.17901        0.11276
C          3.05144       -1.62357        0.42460
C          4.27298       -1.98483       -0.43508
C          5.09452       -0.69165       -0.53847
C          4.06483        0.39297       -0.47099
O          3.62859        0.74508        0.84589
H          1.47650        1.38459       -0.49795
H          0.77175        0.17961        0.59274
H          1.06944       -0.22684       -1.10807
H          2.19721       -2.25872        0.16916
H          3.27327       -1.75579        1.48964
H          4.84826       -2.81826       -0.02198
H          3.93273       -2.27442       -1.43729
H          5.79644       -0.60797        0.29807
H          5.66230       -0.65994       -1.47343
H          4.04487        1.11534       -1.26913
