12
-1365.1
O          1.04843       -0.08315        0.17242
C          2.40146        0.01672        0.03735
C          3.02215        1.25207       -0.05039
C          4.40730        1.27842       -0.18787
C          5.11041        0.07876       -0.23165
C          4.39327       -1.10284       -0.13520
N          3.05148       -1.15795       -0.00139
H          0.68270        0.81200        0.18415
H          2.46107        2.17705       -0.01459
H          4.93511        2.22555       -0.26034
H          6.18940        0.06371       -0.33813
H          4.89349       -2.06618       -0.16386
