12
-1161.87
C          0.99650       -0.04886       -0.01332
N          2.45033        0.00498        0.00674
C          2.92366        1.38592        0.02620
C          4.39213        1.40246       -0.00838
C          5.59238        1.41614       -0.03732
H          0.67045       -1.09367       -0.02095
H          0.58764        0.43710       -0.90523
H          0.57000        0.42200        0.87831
H          2.81987       -0.45484       -0.82429
H          2.57674        1.89164        0.93457
H          2.53529        1.93863       -0.83723
H          6.65808        1.42149       -0.05732
