9
-945.61
C          0.98854        0.01860       -0.08366
C          2.18593       -0.04243       -0.02066
C          3.61176       -0.11501        0.05780
C          4.38183       -0.80166       -1.03772
O          4.27477        0.62548       -0.97728
H         -0.07331        0.07918       -0.14424
H          4.05481       -0.08520        1.04612
H          3.83873       -1.31149       -1.82355
H          5.33953       -1.24165       -0.79148
