14
-1455.92
C          1.00000        0.00000        0.00000
C          2.44400        0.00000        0.00000
C          3.63416        0.00000        0.00000
C          5.07816        0.00000        0.00000
C          5.59469        1.40972       -0.01835
C          6.36080        1.95204        0.93811
H          0.60602        1.02089        0.01169
H          0.60593       -0.52052        0.87825
H          0.60593       -0.50027       -0.88994
H          5.45923       -0.52280       -0.88463
H          5.45698       -0.54224        0.87408
H          5.32486        2.01578       -0.88141
H          6.65812        1.39127        1.81882
H          6.70126        2.98010        0.85936
