15
-1513.21
C          1.49111        0.22130       -0.28898
C          2.84965       -0.19336        0.13186
C          3.14655       -1.59553        0.52445
O          4.37791       -1.95362       -0.13831
C          5.09045       -0.73918       -0.44965
C          4.08036        0.34957       -0.47999
O          3.62139        0.82143        0.79305
H          1.46520        1.26904       -0.60512
H          0.78434        0.10123        0.53787
H          1.14405       -0.39120       -1.12688
H          2.37325       -2.29866        0.20122
H          3.28751       -1.69490        1.60557
H          5.84996       -0.56890        0.32152
H          5.58545       -0.86893       -1.41578
H          4.05634        0.98313       -1.34851
