10
-1124.33
N          1.03169        0.05787        0.00000
C          2.38657       -0.04262        0.00000
O          2.97844       -1.11086        0.00000
C          3.11637        1.19735       -0.00000
C          3.73081        2.22951       -0.00000
C          4.46859        3.46424       -0.00000
O          3.88411        4.53783       -0.00000
H          0.55505        0.94813       -0.00000
H          0.49155       -0.79581        0.00000
H          5.56580        3.36978       -0.00000
