15
-1503.32
C          0.84928       -0.03178       -0.19889
C          2.29597        0.00799        0.15251
C          3.32038       -0.84371       -0.54813
O          2.98618       -1.43087       -1.82206
C          2.96112       -0.36795       -2.78696
O          2.99520        0.90288       -2.11829
C          3.32610        0.65010       -0.73723
H          0.36564        0.89763        0.11658
H          0.36266       -0.85918        0.32632
H          0.66269       -0.15887       -1.26774
H          2.42370        0.14267        1.22267
H          4.11189       -1.29263        0.03955
H          3.83725       -0.45357       -3.43657
H          2.04681       -0.43979       -3.38230
H          4.12120        1.22547       -0.28016
