17
-1615.55
C          0.96006       -0.01266        0.02583
C          2.47616       -0.03024        0.03664
C          3.16654        1.02967        0.93865
C          4.23328       -0.04372        1.25513
C          3.14626       -1.09634        0.94515
N          3.71514       -2.15817        0.12421
H          0.56919       -0.88180       -0.51328
H          0.58888        0.88810       -0.47421
H          0.54746       -0.03051        1.04042
H          2.86777        0.00363       -0.99115
H          2.58127        1.33549        1.81371
H          3.53249        1.92311        0.42643
H          5.08850       -0.01274        0.56707
H          4.60992       -0.03994        2.28180
H          2.56563       -1.42685        1.81206
H          4.27635       -1.83838       -0.66443
H          3.01557       -2.78744       -0.26790
