17
-1571.53
C          1.31314        0.00934        1.10189
C          2.75917        0.00794        0.62489
C          3.23263        1.37023        0.10064
N          3.20415        2.42309        1.13584
C          4.66702        1.27476       -0.45632
O          5.10492        2.57221       -0.85787
H          1.00326       -1.00804        1.36228
H          0.64132        0.37805        0.32019
H          1.18423        0.63193        1.99248
H          2.85620       -0.73451       -0.17646
H          3.40530       -0.32942        1.44494
H          2.57372        1.70467       -0.71026
H          3.69791        2.09345        1.96667
H          2.23871        2.57615        1.43351
H          4.70928        0.61283       -1.32573
H          5.36522        0.90162        0.30047
H          4.68337        3.17802       -0.21172
