11
-1163.99
C          0.98176       -0.03396       -0.00706
C          2.44687        0.11664        0.00027
C          3.30234        1.19091        0.00226
C          4.58094        0.60674        0.01002
N          4.52335       -0.72690        0.01251
O          3.17216       -1.03530        0.00623
H          0.48645        0.94178        0.00127
H          0.64893       -0.59204        0.87344
H          0.65622       -0.57345       -0.90171
H          3.04195        2.23864       -0.00134
H          5.54846        1.08730        0.01390
