15
-1499.81
N          0.99734       -0.00731        0.07262
C          2.46260       -0.00908       -0.04248
C          2.96724       -1.23232       -0.83440
C          3.34725       -0.66683       -2.16501
C          3.34935        0.66947       -2.15750
C          2.97116        1.22140       -0.82072
H          0.69589        0.80777        0.60399
H          0.69302       -0.82809        0.59334
H          2.87407       -0.01547        0.97325
H          2.20631       -2.01301       -0.93538
H          3.84660       -1.67401       -0.35192
H          3.59881       -1.27713       -3.02062
H          3.60288        1.28850       -3.00638
H          3.85214        1.65453       -0.33328
H          2.21312        2.00565       -0.91259
