17
-1724.38
C          1.07144       -0.06473        0.29396
C          2.40184        0.18605       -0.33414
C          3.14556        1.29021       -0.19998
C          2.79373        2.53611        0.54680
C          3.53396        3.55057       -0.28596
C          4.75792        2.77256       -0.71998
O          4.33425        1.41417       -0.91120
H          1.03074       -1.08753        0.68298
H          0.28018        0.04591       -0.45389
H          0.86213        0.61263        1.12668
H          2.78332       -0.61104       -0.96952
H          3.19535        2.49252        1.56479
H          1.72274        2.74916        0.58550
H          2.93301        3.82183       -1.16313
H          3.77997        4.46783        0.25493
H          5.17697        3.15603       -1.65548
H          5.54016        2.78789        0.04849
