14
-1495.74
C          0.98226        0.00138       -0.00732
C          2.52000        0.00000        0.00000
C          3.01284       -0.71383        1.27045
C          3.00334       -0.75354       -1.18564
C          3.40281       -1.35439       -2.14563
C          3.00202        1.36117        0.00000
N          3.38623        2.44616        0.00000
H          0.58567        0.50235       -0.89963
H          0.57757        0.52466        0.86761
H          0.58048       -1.01924       -0.00119
H          2.66541       -0.20435        2.17749
H          4.10917       -0.74466        1.31323
H          2.65631       -1.75028        1.31185
H          3.76315       -1.88084       -3.00070
