18
-1707.52
C          0.46762        0.73792        0.44414
O          1.65393        0.57927       -0.32297
C          2.82083        1.23183        0.24106
C          3.53771        0.44303        1.31147
N          3.99619       -0.82458        0.75147
C          3.64584        1.98786       -0.77359
C          2.84055        2.74041        0.24523
H          0.62204        0.41840        1.47814
H         -0.31187        0.11267        0.00082
H          0.13328        1.77853        0.41815
H          2.85923        0.25421        2.14927
H          4.39865        0.99519        1.70339
H          3.21557       -1.24052        0.24069
H          4.22610       -1.46512        1.50772
H          3.30203        1.98606       -1.80140
H          4.72436        1.97015       -0.66952
H          3.37754        3.24779        1.03775
H          1.96819        3.27558       -0.10967
