17
-1556.97
C          0.93911       -0.17596        0.03971
N          2.39153       -0.09487        0.11518
C          2.85346        1.27325       -0.14542
C          4.37853        1.38895       -0.06618
O          4.74489        2.74232       -0.35254
N          6.14359        2.84465       -0.30614
C          6.47380        4.07106       -0.52730
H          0.61989       -1.20216        0.24746
H          0.57280        0.09562       -0.95589
H          0.46658        0.47256        0.78473
H          2.79927       -0.72768       -0.57313
H          2.41210        1.96799        0.58049
H          2.52313        1.60689       -1.13761
H          4.85025        0.72547       -0.80079
H          4.73157        1.12307        0.93695
H          7.53543        4.36188       -0.53170
H          5.73474        4.86772       -0.71682
