19
-1926.32
C          0.99863       -0.00415        0.01091
C          2.52920       -0.00225       -0.04103
C          3.06384       -1.23039       -0.79659
C          3.33280       -0.69473       -2.16447
C          3.32869        0.64422       -2.18349
C          3.59529        1.51428       -3.35788
C          3.05815        1.21181       -0.82340
H          0.63119        0.88223        0.53829
H          0.63233       -0.88723        0.54449
H          0.55674       -0.00756       -0.99183
H          2.90264        0.00927        0.98943
H          2.34334       -2.05353       -0.81911
H          3.99745       -1.59354       -0.35293
H          3.53586       -1.32529       -3.02005
H          3.56243        2.57211       -3.07776
H          2.84234        1.35208       -4.13616
H          4.58616        1.31076       -3.77455
H          3.99159        1.58455       -0.38601
H          2.33263        2.03048       -0.85455
