15
-1527.53
C          1.86341       -0.96225       -0.11603
C          3.22353       -0.35999        0.11497
O          4.18868       -1.05365        0.42934
C          3.35798        1.10821       -0.10262
C          4.53968        1.72158        0.06492
C          4.81115        3.17964       -0.12063
O          3.68907        3.84272       -0.67973
H          1.07653       -0.21072       -0.01338
H          1.68325       -1.74076        0.63074
H          1.82606       -1.39397       -1.11943
H          2.46550        1.65171       -0.39053
H          5.40222        1.13220        0.37578
H          5.66961        3.32740       -0.78308
H          5.04030        3.64108        0.84467
H          3.67139        3.60870       -1.62335
