17
-1661.23
C          0.98025       -0.07152        0.41774
C          2.41714       -0.02698       -0.09536
C          2.70731        1.29885       -0.79372
C          3.97128        1.24882       -1.64181
C          4.48720       -0.14436       -1.88956
N          3.86005       -1.24793       -1.61038
N          2.63126       -1.09919       -1.06662
H          0.79949        0.73815        1.13273
H          0.77195       -1.01971        0.92535
H          0.25748        0.03646       -0.39946
H          3.09887       -0.16351        0.75280
H          2.79888        2.09960       -0.04883
H          1.86536        1.58442       -1.43843
H          4.77669        1.81408       -1.15997
H          3.79720        1.71922       -2.61649
H          5.47926       -0.22276       -2.36368
H          2.30525       -1.99463       -0.69606
