15
-1536.97
C          1.08973       -0.01928       -0.15459
N          2.50035        0.05299        0.19221
C          3.07565        1.19848        0.14014
N          4.39369        1.34973        0.46918
C          4.72808        2.74276        0.61626
C          3.47499        3.38248        0.09085
C          2.49576        2.51410       -0.20338
H          0.76677       -1.06441       -0.11343
H          0.90242        0.33815       -1.17261
H          0.47412        0.54181        0.55632
H          4.78656        0.65396        1.08785
H          5.59976        3.00524        0.01133
H          4.89749        3.00867        1.66363
H          3.38370        4.45261       -0.02715
H          1.50568        2.70400       -0.57212
