16
-1574.53
N          1.05745       -0.01335       -0.02973
C          2.51977        0.01115        0.03867
C          3.14824        1.04244       -0.95847
C          2.71103        0.05201       -2.09541
C          3.22171       -0.95143       -0.99729
O          4.64787       -0.69494       -0.86418
C          4.66037        0.74965       -0.82901
H          0.61465        0.74230        0.49227
H          0.64955       -0.87542        0.33290
H          2.92056        0.00106        1.05685
H          2.79938        2.07333       -0.97728
H          3.30070        0.08923       -3.01738
H          1.65317        0.01767       -2.37263
H          2.94845       -2.00428       -1.04917
H          5.23800        1.13628       -1.67367
H          5.07662        1.09520        0.12181
