12
-1243.51
O          1.09828        0.38798       -0.67608
C          2.23851        0.08114       -0.01671
O          2.41898       -0.98893        0.53884
C          3.28358        1.13939       -0.00411
C          3.53519        2.05123       -1.18253
C          2.95303        2.61120        0.08479
H          1.10569        1.27826       -1.06593
H          4.17022        0.82344        0.54272
H          2.90781        1.97528       -2.06224
H          4.56804        2.29154       -1.41577
H          3.59296        3.22964        0.70683
H          1.91726        2.92804        0.09415
