12
-1270.7
O          1.25230        0.21644        0.52835
C          2.28225       -0.06267       -0.06141
O          2.57970       -1.27795       -0.61784
C          3.89791       -1.24666       -1.20081
C          4.45973        0.11555       -0.96684
N          3.82184        1.29528       -1.54174
C          3.43078        0.85754       -0.19362
H          4.50356       -2.01486       -0.71054
H          3.81925       -1.47902       -2.26723
H          5.50266        0.16155       -0.69620
H          4.42620        2.11674       -1.48201
H          3.71701        1.46373        0.65288
