18
-1769.38
C          0.99338        0.01222       -0.02085
C          2.51124        0.00492        0.04605
C          3.07792        1.12606        0.91223
C          4.49690        0.65423        1.18155
C          4.35362       -0.84580        1.41117
C          3.08212       -1.27055        0.67358
H          0.63030       -0.81632       -0.63726
H          0.63085        0.94722       -0.45979
H          0.54837       -0.08728        0.97483
H          2.91072        0.10605       -0.97230
H          2.52332        1.21855        1.85355
H          3.05617        2.09472        0.40403
H          5.12788        0.83815        0.30372
H          4.95123        1.16337        2.03648
H          5.23409       -1.39141        1.05740
H          4.24560       -1.05604        2.48177
H          3.29911       -2.02035       -0.09482
H          2.37899       -1.72482        1.38118
