17
-1570.14
C          5.89025       -0.77784        0.09531
O          6.28419        0.41886       -0.56424
N          5.43459        1.45495       -0.15199
C          5.79374        2.59399       -0.67033
C          7.00636        2.77506       -1.55347
C          4.98862        3.83258       -0.30762
N          5.63409        4.50341        0.82185
H          6.14502       -0.71730        1.15690
H          6.43351       -1.61386       -0.35221
H          4.81674       -0.95186       -0.02579
H          7.00092        2.03710       -2.35953
H          7.91131        2.65435       -0.95134
H          7.01018        3.77278       -2.00022
H          3.96986        3.53780       -0.03652
H          4.93736        4.50357       -1.16953
H          5.67651        3.84247        1.60055
H          5.03516        5.26419        1.13908
