17
-1581.98
N          2.02102       -0.51769       -1.33046
C          2.29551        0.01595        0.00928
C          3.15397        1.28329       -0.07181
O          4.39071        0.98557       -0.78763
C          2.40230        2.56928       -0.51315
N          3.08034        3.31158        0.57529
C          3.32682        2.02963        1.27572
H          1.64623       -1.46135       -1.24361
H          2.92327       -0.61663       -1.80444
H          2.82455       -0.74668        0.59176
H          1.34394        0.21306        0.51491
H          4.82023        1.85066       -0.89562
H          1.31234        2.53578       -0.40201
H          2.63652        2.93355       -1.51784
H          3.93099        3.78983        0.27988
H          4.31700        1.95365        1.73599
H          2.57303        1.80040        2.03847
