16
-1585.49
N          1.54815       -0.27844       -0.51602
C          2.84947        0.03450        0.08791
C          3.63672       -1.12004        0.65601
C          4.09554       -0.40419       -0.58342
C          5.06455        0.72143       -0.50573
O          4.32244        1.88103       -0.08574
C          3.12430        1.43452        0.57890
H          1.22062        0.49583       -1.09747
H          0.83863       -0.41517        0.20537
H          3.24204       -2.12352        0.53615
H          4.18351       -0.96989        1.57838
H          4.04390       -0.89130       -1.54512
H          5.85497        0.52774        0.22700
H          5.52606        0.93789       -1.47235
H          3.29260        1.45723        1.65995
H          2.32176        2.13504        0.33189
