15
-1517.77
C          0.98462       -0.10137        0.13536
C          2.44988        0.21723       -0.09306
N          2.84047        1.41843        0.69920
C          3.88001        1.03364        1.37732
N          4.33371       -0.26429        1.33664
C          3.42582       -1.31043        1.81296
C          3.38063       -0.87143        0.38303
H          0.69976       -1.01886       -0.38986
H          0.35267        0.71523       -0.22897
H          0.75802       -0.23925        1.19805
H          2.62978        0.42396       -1.15422
H          4.47070        1.70454        2.02018
H          3.93633       -2.23254        2.05452
H          2.68218       -0.97002        2.52100
H          3.85742       -1.45042       -0.39341
