15
-1432.42
C          0.81334       -0.23514       -0.48909
C          2.24184       -0.23373       -0.00905
C          2.87927       -1.38127        0.26066
N          2.94748        0.94373        0.03338
C          2.38300        1.94641        0.62602
N          2.95795        3.18879        0.74619
O          4.35583        3.15015        0.64289
H          0.69847        0.42153       -1.35670
H          0.13981        0.10867        0.30294
H          0.48675       -1.23679       -0.79031
H          2.38365       -2.34253        0.19046
H          3.92479       -1.37633        0.55054
H          1.38312        1.90955        1.09207
H          2.62399        3.77934        1.50406
H          4.51295        2.35098        0.09017
