16
-1601.97
C          0.99724       -0.13193        0.06582
C          2.51607       -0.03103       -0.04603
O          2.89652       -0.65226       -1.27961
C          3.05784        1.41369       -0.00099
C          2.48713        2.23570        1.15614
C          4.53235        1.39134        0.11324
N          5.68746        1.41147        0.22205
H          0.64065        0.17777        1.05219
H          0.67009       -1.16365       -0.10478
H          0.50691        0.48354       -0.69634
H          2.96413       -0.62850        0.75744
H          2.37793       -0.26293       -2.00504
H          2.80501        1.91759       -0.94289
H          2.65330        1.73893        2.11896
H          1.41185        2.40052        1.03564
H          2.96129        3.22287        1.20812
