15
-1587.54
C          1.00861        0.05594        0.11827
C          2.50239       -0.04576       -0.16242
O          2.72042       -1.17914       -1.04915
C          3.33753       -0.63151       -2.15681
C          3.56161        0.67904       -2.12090
C          3.07400        1.16351       -0.86565
C          3.13884        2.42730       -0.43337
H          0.77919        0.88717        0.79194
H          0.64586       -0.87143        0.57424
H          0.43935        0.19042       -0.80909
H          3.05371       -0.24559        0.76441
H          3.57135       -1.33260       -2.93934
H          4.02954        1.26837       -2.89242
H          2.75243        2.70714        0.54077
H          3.58408        3.21082       -1.03775
