10
-1126.99
N          0.97477        0.17433       -0.00093
C          2.13590        0.12726       -0.00046
C          3.55738       -0.00502        0.00066
N          4.28637        1.06401       -0.00711
N          5.65353        0.63109       -0.00382
C          5.66496       -0.66358        0.00567
C          4.30732       -1.27276        0.01003
H          6.57484       -1.27831        0.01025
H          4.13664       -1.86504       -0.88933
H          4.13652       -1.85180        0.91795
