12
-1159.62
C          1.99975       -0.18244       -0.14121
C          0.73665       -0.82366        0.24190
O         -0.43613       -1.24684       -0.45846
C         -1.49572       -0.41202       -0.18464
N         -1.43082        0.75899        0.38700
O         -0.10611        1.24236        0.71211
C          0.80154        0.66500       -0.23476
H          2.46998       -0.51163       -1.06132
H          2.71610        0.05115        0.63900
H          0.70950       -1.04007        1.31160
H         -2.43967       -0.86002       -0.52689
H          0.59832        0.93695       -1.27036
