12
-1206.68
C          0.42556        1.42404        0.31320
C          1.10793        0.30563       -0.44013
C          1.04735       -1.09136        0.05001
C         -0.43098       -1.24735        0.08792
N         -1.09196       -0.21674       -0.33229
N         -0.24457        0.76184       -0.80187
H          0.74750        2.43949        0.11818
H          0.03676        1.25802        1.31015
H          1.90038        0.52713       -1.13841
H          1.47385       -1.21769        1.04748
H          1.47982       -1.81309       -0.64688
H         -0.89895       -2.16521        0.46832
