15
-1433.32
N          1.00396        1.10079       -1.27711
N          2.32182        0.79438       -1.25475
C          2.93947        1.29874       -0.23713
C          4.38277        1.02746       -0.09809
C          5.34291        1.37670       -1.20950
C          5.33068        2.18990        0.04774
O          6.43456        1.97407        0.93765
H          0.61736        0.83724       -2.18767
H          0.49004        0.52353       -0.60574
H          2.45195        1.91670        0.53803
H          4.60884        0.13436        0.47511
H          4.93671        1.82062       -2.11160
H          6.17054        0.69954       -1.38346
H          4.92098        3.19379       -0.01172
H          7.21997        2.46983        0.64665
