15
-1548.8
C          1.00000        0.00000        0.00000
C          2.44400        0.00000        0.00000
C          3.63416        0.00000        0.00000
C          5.06806        0.00143        0.03920
C          5.82121       -0.72606       -1.04377
C          5.82612        0.77419       -1.01069
O          7.05990        1.38877       -0.60348
H          0.60597        1.02086        0.01163
H          0.60592       -0.52054        0.87823
H          0.60601       -0.50032       -0.88995
H          5.49604       -0.02730        1.03593
H          5.26040       -1.20691       -1.83741
H          6.72546       -1.25374       -0.76700
H          5.25432        1.28847       -1.77754
H          7.49224        0.91542        0.12683
