18
-1719.64
C          0.93378       -0.04801       -0.00854
C          2.45004        0.02566        0.03520
C          3.19073        1.09227        0.88680
N          2.41570        1.46951        2.06900
C          4.20745        0.00217        1.28364
C          3.17824       -1.07361        0.86201
O          3.68525       -2.19892        0.12057
H          0.61240       -0.89792       -0.61860
H          0.51817        0.86068       -0.45440
H          0.49699       -0.17209        0.98669
H          2.81858        0.05066       -1.00319
H          3.60201        1.94164        0.33486
H          2.04596        0.70196        2.62822
H          1.62445        2.08019        1.86765
H          5.11104        0.00900        0.66149
H          4.52120       -0.02907        2.33185
H          2.58605       -1.43399        1.71245
H          4.23335       -1.82253       -0.58860
