14
-1403.06
C          1.00678        0.13527       -0.33446
N          2.39150        0.02770        0.10527
C          2.92009       -1.33999        0.22994
C          3.17510       -1.98441       -1.07425
N          3.35936       -2.50910       -2.09491
C          3.26138        1.08258        0.01163
N          3.00419        2.31766       -0.22355
H          0.50908        0.97876        0.15482
H          0.43256       -0.76305       -0.08309
H          0.96044        0.27901       -1.41896
H          2.21161       -1.94938        0.80415
H          3.84509       -1.33052        0.81951
H          4.31562        0.79706        0.17572
H          2.00179        2.46182       -0.34324
