13
-1168.84
C          0.98959       -0.05939        0.00448
C          2.50978       -0.01178       -0.01021
N          2.96233        1.37831        0.00612
C          4.41693        1.45515        0.00907
H          0.64538       -1.09826       -0.01758
H          0.56856        0.45410       -0.86645
H          0.58650        0.40981        0.90820
H          2.87238       -0.51754       -0.91248
H          2.89453       -0.55241        0.86235
H          2.59820        1.84608        0.83585
H          4.83986        0.98967       -0.88699
H          4.84254        0.97640        0.89688
H          4.72624        2.50488        0.01158
