17
-1715.03
C          1.03433       -0.04126       -0.01752
C          2.52547       -0.04291        0.00057
C          3.34661       -0.73794       -1.06234
C          2.72807       -1.46721       -2.20635
C          3.30098        0.77519       -1.01152
C          4.51086        1.52413       -0.60071
O          5.33624        1.88538       -1.42882
H          0.65512        0.72666        0.66423
H          0.65252       -1.01049        0.31770
H          0.62463        0.16533       -1.01080
H          2.89947       -0.10427        1.01789
H          4.25741       -1.23203       -0.73721
H          1.89565       -0.91813       -2.65668
H          2.35773       -2.44225       -1.87497
H          3.47574       -1.63633       -2.98788
H          2.73461        1.27751       -1.78998
H          4.62056        1.74589        0.47363
