6
-618.72
C          1.00000        0.00000        0.00000
C          2.44400        0.00000        0.00000
N          3.59501        0.00000        0.00000
H          0.60643        1.02152        0.01169
H          0.60642       -0.52089        0.87883
H          0.60643       -0.50063       -0.89050
