13
-1249.26
C          1.00000        0.00000        0.00000
C          2.44400        0.00000        0.00000
C          3.63416        0.00000        0.00000
S          5.42031        0.00555       -0.01224
C          5.90701       -0.83447        1.46809
O          5.63592       -0.79818       -1.19083
O          5.63705        1.43074        0.07430
H          0.60598        1.02086        0.01169
H          0.60600       -0.52055        0.87826
H          0.60598       -0.50032       -0.88993
H          5.51973       -0.28790        2.32916
H          6.99787       -0.85506        1.49906
H          5.51540       -1.85239        1.44222
