13
-1411.69
C          1.05267       -0.00254        0.04619
C          2.39235       -0.01768        0.05246
C          3.27774        1.17244        0.08602
O          4.51166        0.74097       -0.48231
C          4.53199       -0.61872       -0.58369
O          5.49530       -1.25123       -0.98946
C          3.24009       -1.22964       -0.11122
H          0.47704       -0.92041       -0.03268
H          0.49607        0.92739        0.11732
H          3.46695        1.50838        1.11024
H          2.88548        2.00278       -0.50825
H          2.84752       -1.91083       -0.86928
H          3.41075       -1.73152        0.84508
