15
-1454.8
O          2.16253        1.54261       -0.26748
C          3.24398        1.18409        0.18187
N          4.41823        1.90497        0.11424
N          4.43958        3.12175       -0.58578
C          4.54340        4.19606        0.41039
C          5.88690        4.79912        0.71235
C          4.86909        5.58573       -0.06175
H          3.38591        0.22072        0.69757
H          5.29572        1.50532        0.43079
H          3.54218        3.20404       -1.08467
H          3.82585        4.14102        1.22808
H          6.75282        4.43274        0.17351
H          6.09009        5.09860        1.73333
H          4.37580        6.41285        0.43515
H          5.04593        5.74413       -1.11916
