15
-1539.53
C          0.85762       -0.09533        0.02456
C          2.19908       -0.06353        0.00074
C          2.93583        1.25092       -0.07667
C          4.47289        1.19031       -0.01754
N          5.11509       -0.13382       -0.04623
C          4.34463       -1.15547       -0.01275
N          2.98462       -1.18385        0.02856
H          0.27532        0.81998       -0.00629
H          0.30653       -1.02856        0.06972
H          2.59150        1.90275        0.73560
H          2.65116        1.75419       -1.00890
H          4.81448        1.70712        0.88912
H          4.87517        1.77170       -0.85793
H          4.78519       -2.16560       -0.01651
H          2.51382       -2.07932        0.05233
