14
-1446.33
C          0.86354       -0.15800        0.02134
C          2.37983       -0.03890       -0.00896
C          2.82324        1.38763       -0.01307
C          3.07259        2.22743        1.05552
N          3.47525        3.50804        0.73401
C          3.52922        3.62753       -0.57429
S          3.10762        2.23364       -1.47926
H          0.56711       -1.21141        0.03846
H          0.41015        0.30759       -0.86007
H          0.44523        0.32679        0.90987
H          2.77109       -0.56717       -0.88683
H          2.79796       -0.54538        0.86978
H          2.97431        1.95362        2.09974
H          3.82246        4.54930       -1.05850
