13
-1397.03
O          0.89998        0.06338        0.34250
C          2.11743       -0.00383        0.14914
C          2.95143        1.24530       -0.09505
O          4.35013        1.20100        0.12872
C          4.92731       -0.03081        0.06067
C          4.29047       -1.19930       -0.00467
C          2.80553       -1.33953        0.00835
H          2.55397        2.03126        0.55819
H          2.78383        1.55702       -1.13239
H          6.00907        0.05394        0.09109
H          4.87255       -2.11659       -0.04501
H          2.47268       -1.80949       -0.92283
H          2.50968       -1.96716        0.85561
