15
-1588.99
C          0.95284       -0.00155        0.01289
C          2.47331        0.00818        0.01211
C          3.02739        1.43282        0.00000
C          4.47139        1.43282        0.00000
C          5.66155        1.43282        0.00000
C          7.19352        1.43204        0.00001
C          8.39330        1.43143        0.00001
H          0.58084       -1.03091        0.02121
H          0.55683        0.49545       -0.87839
H          0.55769        0.50947        0.89660
H          2.83574       -0.54396       -0.86402
H          2.83652       -0.52936        0.89696
H          2.65502        1.97841        0.87510
H          2.65497        1.96347       -0.88421
H          9.45824        1.43096        0.00002
