17
-1655.11
C         -1.50386        0.79153        0.18719
C         -1.36314       -0.69681       -0.14656
C         -0.01040       -1.22815        0.22402
N          1.06557       -1.13520       -0.76873
C          1.13176       -0.25945        0.40003
C          0.87268        1.21646        0.29989
N         -0.39048        1.56756       -0.35625
H         -2.44186        1.16173       -0.24108
H         -1.57015        0.93610        1.27260
H         -1.54808       -0.86121       -1.21580
H         -2.13443       -1.25715        0.39521
H         -0.04382       -2.13186        0.81615
H          1.71300       -1.91804       -0.67727
H          1.91221       -0.48806        1.11532
H          0.87589        1.63845        1.31285
H          1.69811        1.69120       -0.24239
H         -0.56435        2.56221       -0.23313
