17
-1724.97
C          0.97113        0.03907        0.36559
C          2.46802       -0.01169        0.05363
C          2.86495        1.20088       -0.79658
O          4.19421        1.14765       -1.32194
C          4.51743       -0.04883       -1.89264
C          3.92040       -1.21519       -1.62979
C          2.82671       -1.34281       -0.62442
H          0.70542        0.97023        0.87593
H          0.67457       -0.79904        1.00392
H          0.37928       -0.01580       -0.55612
H          3.02513        0.04404        0.99842
H          2.80535        2.10708       -0.18162
H          2.17283        1.34289       -1.63577
H          5.35527        0.05451       -2.56975
H          4.25190       -2.11498       -2.13783
H          1.95395       -1.78541       -1.11318
H          3.14371       -2.05628        0.14966
