13
-1393.8
C          0.97180       -0.02116        0.00083
C          2.31404        0.00000        0.00000
C          3.01704       -1.21763        0.00000
C          3.61212       -2.24834        0.00000
C          3.13712        1.21889       -0.04810
C          2.94566        2.28302        1.00889
O          4.15103        1.51930        0.93101
H          0.39578        0.89770       -0.01930
H          0.41730       -0.95466        0.02171
H          4.15012       -3.16733        0.00422
H          3.34287        1.55844       -1.05869
H          2.29276        2.08954        1.85131
H          2.98922        3.32077        0.70226
