18
-1770.01
C          1.03412       -0.03158        0.04464
C          2.54757        0.05965       -0.09952
C          3.25036        1.09280       -1.02389
C          2.85866        0.10705       -2.14523
N          3.15943       -0.94831       -1.08192
C          4.62310       -0.75575       -0.86538
C          4.71998        0.76946       -0.81714
H          0.67517        0.77624        0.69091
H          0.75316       -0.97913        0.51556
H          0.49029        0.04560       -0.89940
H          2.97214        0.00278        0.91470
H          2.90311        2.12306       -1.05760
H          3.50318        0.08010       -3.03274
H          1.82409        0.13408       -2.50317
H          4.95036       -1.22064        0.07093
H          5.20613       -1.18146       -1.68911
H          5.34603        1.17016       -1.62076
H          5.08929        1.13152        0.14781
