17
-1678.68
C          1.15252       -0.01393        0.16442
N          2.59400       -0.07338        0.23815
C          3.34006        1.17355        0.09682
C          4.48078        0.79766       -0.84816
C          4.73428       -0.68122       -0.57608
C          3.34969       -1.13879       -0.18566
N          3.02327       -2.37645       -0.26116
H          0.69096       -0.94826        0.49762
H          0.82876        0.18780       -0.86286
H          0.76946        0.78478        0.81020
H          3.72844        1.47711        1.07543
H          2.73731        1.99037       -0.31387
H          4.15231        0.92643       -1.88754
H          5.37143        1.41430       -0.69894
H          5.10771       -1.21278       -1.45461
H          5.41182       -0.82972        0.27014
H          2.06855       -2.49349        0.07968
