18
-1763.88
C          0.96230        1.75485        1.28204
C          2.44761        1.59357        1.23382
C          3.13255        1.34546        0.10746
C          4.61132        1.18663        0.07208
C          5.49044        2.25624        0.75395
N          6.40841        1.17143        1.18846
C          5.27772        0.21461        1.06852
H          0.70802        2.74606        1.66952
H          0.52784        1.00290        1.94773
H          0.50107        1.64501        0.29561
H          2.96229        1.69020        2.18758
H          2.61016        1.25029       -0.84135
H          4.93981        0.99337       -0.96045
H          5.04112        2.79583        1.59555
H          5.94428        2.98976        0.08029
H          7.15523        0.99016        0.51698
H          5.55340       -0.76194        0.65841
H          4.75502        0.05242        2.01820
