14
-1361.2
O          0.90698        0.45535       -0.44813
N          2.25938        0.45830       -0.81162
C          2.94517        0.99604        0.14989
C          4.45943        1.13248        0.04317
O          4.98412        0.42225       -1.06464
C          4.80771        2.57777       -0.13267
C          5.53221        3.29855        0.73492
H          0.48369        0.00514       -1.20479
H          2.47086        1.37850        1.07208
H          4.89662        0.71913        0.95806
H          4.21426        0.20317       -1.62512
H          4.45239        3.05478       -1.04366
H          5.93104        2.86514        1.64722
H          5.76082        4.33986        0.53451
