13
-1294.72
C          1.02776       -1.69100        0.04101
C          1.94389       -0.48896        0.16156
O          1.13556        0.68534        0.22955
C          1.90900        1.88537        0.37374
C          2.56041        2.29845       -0.88094
N          3.09711        2.62382       -1.85821
H          1.60562       -2.61749       -0.01929
H          0.39818       -1.60808       -0.85112
H          0.35401       -1.75021        0.90220
H          2.60613       -0.44294       -0.70925
H          2.54953       -0.57444        1.07038
H          2.64016        1.76286        1.18074
H          1.21306        2.67031        0.68813
