16
-1576.01
N          0.98700       -0.00242       -0.01342
C          2.44429       -0.01529        0.00281
C          3.01365       -1.14408        0.87117
C          3.83787       -0.28444        1.82329
C          4.55978        0.78214        0.95463
C          3.06234        1.16145        0.77064
O          2.93256        0.83687        2.23283
H          0.63405       -0.84022       -0.47055
H          0.64672        0.79502       -0.54727
H          2.82620       -0.06587       -1.02279
H          3.63140       -1.83611        0.29059
H          2.24822       -1.71468        1.40712
H          4.38448       -0.73134        2.65405
H          5.09751        0.42537        0.07332
H          5.16886        1.50664        1.50216
H          2.82405        2.19660        0.52266
