12
-1174.66
C          1.00000        0.00000        0.00000
C          2.44400        0.00000        0.00000
C          3.63416        0.00000        0.00000
C          5.07816        0.00000        0.00000
N          5.57976        1.36642        0.01825
H          0.60599        1.02088        0.01167
H          0.60592       -0.52051        0.87826
H          0.60593       -0.50030       -0.88993
H          5.46000       -0.51404       -0.88852
H          5.46212       -0.53334        0.87549
H          5.21418        1.85962       -0.79450
H          6.59167        1.35004       -0.08467
