14
-1392.58
C          1.02858       -0.02304        0.03877
C          2.54545        0.00426        0.06057
C          3.10296        1.18562        0.83263
C          4.38513        0.60348        1.31361
O          5.38008        1.22665        1.64413
N          4.22287       -0.75604        1.37667
O          3.03461       -1.16922        0.73016
H          0.67261       -0.90348       -0.50587
H          0.62322        0.87298       -0.43995
H          0.62116       -0.09720        1.05264
H          2.93687       -0.01065       -0.96456
H          2.49409        1.45489        1.70137
H          3.26024        2.05653        0.19203
H          4.98443       -1.40876        1.50594
