15
-1416.38
N          2.98094       -0.99902       -0.54457
C          2.34020        0.09552        0.16857
C          3.28210        1.25447        0.19213
C          3.43551        2.14531       -1.01490
C          2.73962        2.65922        0.21434
O          3.46811        3.59564        1.01846
H          2.35256       -1.80008       -0.55865
H          3.80787       -1.29887       -0.03116
H          2.09890       -0.21268        1.19217
H          1.40022        0.35256       -0.33391
H          4.16274        1.04874        0.78833
H          2.82993        1.93046       -1.88892
H          4.42675        2.50952       -1.25207
H          1.66373        2.79339        0.15574
H          4.42359        3.57051        0.84088
