15
-1529.28
O          0.93283        0.12410       -0.01279
C          2.14544        0.14459        0.18312
C          3.03402        1.34978       -0.05804
C          2.28353        2.67089       -0.06788
C          3.30462        3.62481        0.49714
C          3.99254        2.76258        1.52937
O          4.01301        1.43166        0.99286
H          2.67914       -0.77614        0.47475
H          3.57650        1.19041       -0.99603
H          1.40526        2.63767        0.58843
H          1.93961        2.95038       -1.06807
H          4.01554        3.91149       -0.28659
H          2.87046        4.53450        0.91912
H          5.01395        3.08997        1.74111
H          3.42912        2.73771        2.46831
