12
-1331.8
O          0.92604       -0.08520        0.00937
C          2.29456       -0.01322       -0.00075
C          2.98368        1.12903       -0.00294
C          2.44000        2.46054        0.00485
C          3.42240        3.36192       -0.00157
C          4.59506        2.49006       -0.01337
N          4.35408        1.21563       -0.01387
H          0.68106       -1.02746        0.00429
H          2.78477       -0.97806       -0.00738
H          1.38140        2.67026        0.01425
H          3.39574        4.43321        0.00094
H          5.60063        2.93547       -0.02097
