14
-1352.41
O          2.87944       -1.06298       -0.01544
C          2.11255        0.13094        0.13869
C          3.06177        1.28624        0.26360
O          4.18807        1.03111        1.12075
C          3.34483        2.17973       -0.91408
C          2.55440        2.70016        0.25564
H          2.23904       -1.79023       -0.09800
H          1.51146        0.03820        1.04840
H          1.44580        0.23694       -0.72283
H          4.46908        0.10419        0.98644
H          2.82059        1.99501       -1.84299
H          4.35865        2.54037       -1.04132
H          3.03586        3.41124        0.91792
H          1.49382        2.87103        0.11652
