13
-1319.77
N          0.99053        0.00099       -0.07233
C          2.34340        0.02821       -0.04271
C          3.08295        1.18620       -0.08307
S          4.76672        0.87245        0.00959
C          4.50281       -0.82020        0.09297
C          3.16511       -1.13289        0.04260
N          2.68974       -2.39966        0.06305
H          0.46400        0.85218        0.09952
H          0.52038       -0.82035        0.29580
H          2.72945        2.20427       -0.15330
H          5.34510       -1.49210        0.16544
H          1.76194       -2.56860       -0.31317
H          3.31905       -3.17797       -0.10800
