20
-1920.45
C          1.84321       -0.58764        1.21299
C          2.64977       -0.19819       -0.01614
C          2.99341        1.26323       -0.00748
C          4.24832        1.73968       -0.00791
C          4.58803        3.20557       -0.02103
C          5.40079        3.61007        1.21443
N          5.75542        5.02758        1.17159
H          1.59011       -1.65197        1.17685
H          0.90816       -0.02044        1.27005
H          2.40997       -0.40504        2.13196
H          2.06621       -0.41634       -0.91806
H          3.55491       -0.81514       -0.06393
H          2.15465        1.95747       -0.01479
H          5.08775        1.04712       -0.01463
H          3.67647        3.81375       -0.07779
H          5.16537        3.41381       -0.93044
H          6.31918        3.01453        1.27670
H          4.82141        3.41732        2.12457
H          6.33393        5.21116        0.35286
H          6.32859        5.25446        1.98316
