13
-1392.04
C          1.03075       -0.02789        0.14217
C          2.35866        0.01895        0.00594
C          3.28614        1.17619       -0.00845
O          4.44688        0.74646       -0.74265
C          4.60822       -0.67487       -0.55772
C          3.21985       -1.15273       -0.25024
O          2.85214       -2.31475       -0.18405
H          0.49951       -0.97532        0.09855
H          0.44533        0.87169        0.29720
H          3.60013        1.44653        1.00522
H          2.86422        2.05367       -0.50588
H          4.98528       -1.11097       -1.48455
H          5.27909       -0.85974        0.28448
