11
-1198.32
O          1.03963       -0.04626        0.56255
C          2.19967        0.15449        0.24458
N          2.93062        1.31292        0.39956
C          4.09722        1.04483       -0.10014
N          4.37078       -0.21117       -0.60566
C          4.28585       -1.36080        0.29832
C          3.05175       -0.88622       -0.38951
H          4.91585        1.77447       -0.20278
H          4.78368       -2.24023       -0.08548
H          4.44685       -1.13109        1.34346
H          2.68562       -1.37670       -1.27910
