14
-1416.48
C          3.20685       -0.53784        1.10946
O          2.78641        0.21068       -0.02669
C          3.30155        1.47060       -0.16060
C          4.16777        2.10632        0.64422
C          4.59377        3.48512        0.32832
N          5.44217        4.00849        1.25457
O          4.23243        4.11407       -0.65323
H          2.68579       -1.50069        1.09872
H          2.94064       -0.02197        2.03877
H          4.28321       -0.73298        1.06878
H          2.89324        1.92924       -1.05815
H          4.57255        1.65006        1.53133
H          5.74933        3.51713        2.08318
H          5.76711        4.95556        1.10732
