17
-1661.41
C          0.62460        0.64881        1.09586
C          2.10778        0.80237        1.21035
C          2.89051        1.24660        0.21436
C          4.37698        1.40110        0.30321
N          4.67504        2.79802        0.09949
C          5.91236        3.24204       -0.22555
N          6.29257        4.46703       -0.18768
H          0.34435       -0.39752        1.25332
H          0.25010        0.95888        0.11472
H          0.12739        1.25720        1.85792
H          2.54490        0.52785        2.16719
H          2.44556        1.50912       -0.74373
H          4.84736        0.78456       -0.47021
H          4.76093        1.07721        1.27667
H          4.05804        3.44527        0.57357
H          6.61232        2.45340       -0.54980
H          5.51432        5.05872        0.11012
