16
-1612.25
C          2.31421       -0.54310       -1.42873
C          2.28325        0.08677       -0.04525
C          3.22601        1.27597        0.01102
C          2.78791        2.59160       -0.67955
C          3.09064        3.22456        0.69004
O          3.33455        4.31463        1.14045
N          3.09291        2.00052        1.28857
H          1.66302       -1.42196       -1.46187
H          3.32881       -0.85802       -1.69428
H          1.97289        0.16430       -2.19136
H          2.58780       -0.66399        0.69354
H          1.25550        0.38235        0.19664
H          4.27407        1.00477       -0.17300
H          1.73639        2.66694       -0.97026
H          3.43572        2.93110       -1.49000
H          3.64245        1.89712        2.13110
