16
-1575.71
O          2.01724       -0.49576       -0.44591
C          2.30146       -0.01806        0.64790
C          3.21805        1.15811        0.85749
C          3.67156        1.76168       -0.46630
N          4.54815        2.90884       -0.19020
C          5.95587        2.66452       -0.49426
C          5.09936        3.50016       -1.40709
H          1.89185       -0.45920        1.57237
H          4.07445        0.80929        1.44485
H          2.67146        1.89863        1.45279
H          2.79183        2.11020       -1.02358
H          4.15043        0.99237       -1.08630
H          6.26267        1.68201       -0.82986
H          6.67070        3.17686        0.13795
H          5.23116        4.57510       -1.38809
H          4.80304        3.08739       -2.36405
