20
-1912.68
C         -0.05895       -0.26296        0.86207
C          1.44353       -0.49571        0.84731
C          2.20723        0.81199        0.63662
N          3.64561        0.54452        0.62229
C          4.40491        1.77326        0.41191
C          5.86622        1.44793        0.41981
C          6.70804        1.69579       -0.59244
H         -0.58788       -1.20819        1.02222
H         -0.40045        0.15960       -0.08927
H         -0.34318        0.42539        1.66521
H          1.68546       -1.20727        0.04953
H          1.74312       -0.95639        1.79566
H          1.96401        1.50987        1.44732
H          1.89632        1.27025       -0.31062
H          3.86093       -0.10387       -0.13492
H          4.20684        2.48488        1.22130
H          4.11733        2.24747       -0.53343
H          6.25225        0.98553        1.32645
H          6.37231        2.15796       -1.51547
H          7.75913        1.43434       -0.51454
