18
-1787.24
C          1.86762        0.16828       -0.74545
N          1.78403       -0.05151        0.69161
C          0.52841        0.03469       -0.05615
C         -0.35525        1.23808        0.15806
C         -1.76028        0.72252       -0.16218
C         -1.70452       -0.75009        0.22997
C         -0.32160       -1.19390       -0.24830
H          2.20124        1.15209       -1.05261
H          2.24144       -0.65521       -1.34110
H          2.00888       -1.01925        0.92810
H         -0.30613        1.56888        1.20197
H         -0.09084        2.08118       -0.48821
H         -2.53721        1.27352        0.37528
H         -1.95678        0.81312       -1.23729
H         -2.50937       -1.33825       -0.21954
H         -1.77345       -0.84745        1.32032
H         -0.35913       -1.45690       -1.31179
H          0.03175       -2.06429        0.31312
