13
-1429.63
O          0.92325        0.04403       -0.17315
C          2.09803        0.24200       -0.02095
C          3.43511       -0.47559        0.65088
C          3.52628        0.99636        1.31452
C          3.22345        1.44792       -0.20755
C          4.28596        0.77810       -1.01629
C          4.42038       -0.44317       -0.47089
H          3.33548       -1.35388        1.27873
H          2.75795        1.24396        2.05711
H          4.50590        1.28172        1.71168
H          2.91490        2.46361       -0.42837
H          4.82335        1.19537       -1.85417
H          5.09064       -1.23528       -0.76783
