17
-1641.43
O          3.50436        1.43270        2.43439
C          2.82683        2.43359        1.68847
C          2.88877        2.10788        0.20117
C          4.30997        1.97386       -0.35200
C          5.10976        3.23142       -0.21754
C          5.86860        3.80442       -1.38630
O          4.60870        4.34623       -0.96616
H          3.38962        1.65444        3.37455
H          3.28266        3.40435        1.90513
H          1.78326        2.46314        2.01815
H          2.34147        2.87742       -0.35606
H          2.37417        1.15437        0.02851
H          4.24169        1.68288       -1.40718
H          4.83963        1.16049        0.15667
H          5.48116        3.41012        0.78298
H          5.89083        3.25829       -2.32077
H          6.75572        4.39158       -1.18450
