13
-1350.59
N          1.08230       -0.08941       -0.14146
C          2.40647        0.08920       -0.06729
C          3.19794        1.21124       -0.04106
C          4.53421        0.74620        0.05335
C          4.45716       -0.62557        0.08036
N          5.38313       -1.58777        0.15616
O          3.16520       -1.03218        0.00637
H          0.45469        0.66877        0.09909
H          0.72592       -1.01192        0.08449
H          2.85885        2.23563       -0.08657
H          5.43610        1.33732        0.09896
H          5.08999       -2.53289       -0.06894
H          6.34710       -1.38418       -0.07953
