16
-1573.44
O          1.00808       -0.07795       -0.09549
C          2.42737        0.06891       -0.03150
C          3.35120       -0.58604       -1.07929
N          4.42243       -0.34451       -0.00102
C          3.28839       -0.75255        0.95142
C          4.43899        1.14210        0.11896
C          2.94937        1.48253        0.09284
H          0.67830        0.24443        0.76048
H          3.50895       -0.04513       -2.01902
H          3.16354       -1.64177       -1.31262
H          3.09152       -1.83123        0.99835
H          3.38212       -0.37168        1.97453
H          4.91562        1.45627        1.05406
H          4.97901        1.59891       -0.71748
H          2.68213        2.10351       -0.76770
H          2.62139        1.96888        1.01678
