13
-1380.76
N          0.91344        0.03473        0.15121
N          2.26479       -0.03596        0.07686
C          2.88563        1.09694        0.05695
C          2.35843        2.48035        0.12299
C          3.43033        3.27346        0.05150
C          4.63235        2.49904       -0.05177
C          4.35604        1.19339       -0.04653
H          0.53702       -0.91004        0.26117
H          0.52404        0.37415       -0.73160
H          1.32145        2.74499        0.22118
H          3.41285        4.35289        0.07887
H          5.62036        2.92969       -0.11666
H          5.02040        0.35048       -0.10448
