17
-1717.33
C          1.90502        0.15740       -0.73200
O          1.63894       -0.08442        0.65460
C          0.49676        0.05317       -0.20203
C         -0.35951        1.24668        0.09500
C         -1.78314        0.72538       -0.12395
C         -1.69128       -0.75588        0.23415
C         -0.33724       -1.18315       -0.33659
H          2.28829        1.13246       -1.00511
H          2.30336       -0.66350       -1.31509
H         -0.23067        1.56929        1.13420
H         -0.14469        2.09295       -0.56468
H         -2.51915        1.26132        0.48198
H         -2.06275        0.83476       -1.17869
H         -2.51894       -1.34143       -0.17558
H         -1.69199       -0.87441        1.32439
H         -0.43864       -1.44801       -1.39512
H          0.06943       -2.04522        0.20194
