8
-860.26
C          0.97571       -0.01272       -0.00000
C          2.31276        0.00346       -0.00000
C          3.03706        1.22425        0.00000
C          3.64599        2.25893        0.00000
H          0.43329       -0.95237       -0.00000
H          0.39440        0.90382       -0.00000
H          2.87308       -0.92668       -0.00000
H          4.17912        3.18003        0.00000
