11
-1231.29
O          2.81061       -1.05541        0.02083
C          2.19228        0.00120        0.00021
N          2.89320        1.20134        0.00382
C          2.35033        2.46629       -0.01706
C          3.42170        3.32801       -0.00352
N          4.60129        2.63494        0.02492
C          4.25610        1.36572        0.02873
H          1.09218        0.05799       -0.02145
H          1.28381        2.63896       -0.03904
H          3.40658        4.41090       -0.01274
H          4.93587        0.52282        0.04877
