19
-1789.61
N          0.76613       -0.08288        0.05605
C          2.21650       -0.22338        0.26226
C          2.94072        1.13904        0.09140
N          2.25365        2.17404        0.89185
C          4.43307        1.06833        0.46629
C          5.21222        0.10458       -0.38838
C          5.87969       -0.95338        0.08934
H          0.33856       -1.00753        0.09440
H          0.60175        0.26147       -0.89029
H          2.60654       -0.95634       -0.45147
H          2.38299       -0.61419        1.27231
H          2.85461        1.44309       -0.96013
H          2.37363        1.95264        1.87938
H          1.24994        2.01929        0.73895
H          4.53842        0.80807        1.52969
H          4.88445        2.06053        0.34322
H          5.23331        0.30451       -1.45784
H          5.90005       -1.18627        1.14969
H          6.43216       -1.60839       -0.57729
