13
-1314.44
C          1.15926       -0.29929       -0.19708
N          2.59066       -0.13919       -0.19298
C          3.16314        1.03021        0.24217
O          2.53451        1.98696        0.67436
C          4.64443        1.02335        0.12919
C          5.35726        2.09664        0.49207
H          0.92247       -1.33526       -0.45003
H          0.72789        0.37485       -0.94210
H          0.75775       -0.05394        0.79008
H          3.16119       -0.87024       -0.59287
H          5.13493        0.13615       -0.24738
H          4.87638        2.99441        0.87387
H          6.43923        2.10097        0.41553
