14
-1504.67
C          1.03307       -0.04727       -0.06332
C          2.36020        0.08730        0.02097
C          3.05680        1.36044       -0.09838
C          4.38233        1.14673       -0.01787
C          4.73782       -0.26344        0.18974
N          4.36212       -1.26541       -0.79187
C          3.37129       -0.97721        0.23452
H          0.57039       -1.02490        0.02593
H          0.38029        0.80313       -0.22642
H          2.57667        2.31451       -0.24767
H          5.12951        1.92547       -0.08716
H          5.47080       -0.51816        0.94428
H          4.09518       -0.82786       -1.67400
H          3.20495       -1.70760        1.01583
