18
-1761.22
C          1.01154        0.25845       -0.25969
C          2.47518        0.04407       -0.08344
C          3.19817       -0.97279       -0.92872
N          3.38019        0.46195       -1.14994
C          4.68557        0.89830       -0.62847
C          5.89517        0.80026       -1.52157
C          5.29910        2.14176       -1.21724
H          0.73242        1.25665        0.09126
H          0.45257       -0.47626        0.32779
H          0.69944        0.16551       -1.30513
H          2.78071        0.16826        0.94846
H          2.65021       -1.49401       -1.70408
H          4.01003       -1.53564       -0.48443
H          4.86893        0.74813        0.43462
H          5.76337        0.40263       -2.52155
H          6.84206        0.54644       -1.06199
H          5.84026        2.80228       -0.55079
H          4.76396        2.65055       -2.01048
