9
-1051.63
N          0.90123        0.00861       -0.00717
C          2.06107        0.03224       -0.00400
C          3.48626        0.06327       -0.00011
C          4.23623        1.22039        0.00176
S          5.89527        0.79141        0.00635
N          5.64649       -0.85080        0.00593
C          4.33487       -1.07766        0.00238
H          3.91500        2.25286        0.00072
H          4.01515       -2.11300        0.00167
