14
-1323.74
C          1.03986       -0.00759       -0.07080
C          2.52621        0.04600        0.01375
N          3.33743       -0.64125       -0.99085
C          3.33291        0.81998       -1.00012
C          4.56513        1.54833       -0.58806
H          0.60052        0.73405        0.60356
H          0.67880       -0.99640        0.23023
H          0.67452        0.19682       -1.08190
H          2.88824       -0.02517        1.03304
H          2.75697       -1.01163       -1.74564
H          2.82769        1.29773       -1.83149
H          5.08661        1.05066        0.23645
H          4.30878        2.56200       -0.26455
H          5.25742        1.62619       -1.43154
