14
-1370.83
C          0.68478        0.09429        0.03865
C          2.16649       -0.08997        0.10111
C          3.04656        0.91424       -0.00109
N          4.41190        0.80290        0.05019
C          5.37540        1.76585       -0.04754
N          5.25788        3.03377       -0.21963
H          0.27330       -0.47727       -0.79894
H          0.40216        1.14368       -0.09236
H          0.22509       -0.26971        0.96263
H          2.51555       -1.10993        0.23792
H          2.68933        1.93169       -0.13818
H          4.74743       -0.14641        0.18211
H          6.39004        1.34026        0.04042
H          4.26980        3.28242       -0.28445
