18
-1760.86
C          1.00675       -0.41151        0.47836
C          2.23818       -0.49011       -0.42729
C          1.99816       -1.52094       -1.53242
C          2.57028        0.87543       -1.04796
C          3.14391        1.87032       -0.05636
N          3.31545        3.12483       -0.56762
O          3.46119        1.61509        1.09678
H          1.16711        0.27728        1.31331
H          0.77631       -1.39454        0.90311
H          0.12633       -0.06992       -0.07649
H          3.08782       -0.83325        0.17615
H          1.15668       -1.23063       -2.17117
H          1.77609       -2.50491       -1.10579
H          2.88478       -1.62593       -2.16682
H          1.67661        1.31180       -1.50974
H          3.32401        0.74843       -1.83446
H          3.12316        3.36112       -1.53022
H          3.71754        3.82691        0.03954
