14
-1347.89
C          1.25716        0.26559        0.02251
C          2.68657       -0.14849        0.00305
C          3.25528       -0.93758       -1.13287
N          3.69070        0.44850       -0.88832
C          3.30323        1.39479       -1.79955
N          3.95466        2.47496       -2.06651
H          1.15865        1.27549        0.43298
H          0.68445       -0.41401        0.66204
H          0.79538        0.24694       -0.96951
H          3.07847       -0.31701        0.99915
H          2.67729       -1.09249       -2.03325
H          4.03333       -1.65942       -0.92571
H          2.36548        1.18210       -2.33970
H          4.78907        2.47453       -1.46810
