17
-1686.1
C          0.77682        1.95958        0.67349
C          2.06579        1.18021        0.50501
O          3.08551        2.08135        0.07904
C          4.33629        1.41380       -0.10335
C          5.37876        2.43218       -0.55407
C          6.69337        1.80553       -0.75785
C          7.76762        1.29765       -0.92491
H         -0.03538        1.30436        1.00050
H          0.48860        2.43657       -0.26911
H          0.90362        2.76004        1.40988
H          1.92990        0.39371       -0.24537
H          2.35134        0.72246        1.45845
H          4.22227        0.62632       -0.85839
H          4.64241        0.94871        0.84175
H          5.45331        3.23345        0.19070
H          5.04245        2.91497       -1.47923
H          8.72358        0.84956       -1.07417
