19
-1780.42
C          0.97132       -0.08608        0.00245
C          2.48585        0.02675        0.04030
C          3.19912        1.13722        0.87911
N          2.42571        1.50039        2.07955
C          4.19495        0.00262        1.24262
N          3.10990       -0.98208        0.95151
C          3.63937       -2.10972        0.19198
H          0.66532       -0.96629       -0.57344
H          0.53668        0.79358       -0.48342
H          0.52965       -0.17393        1.00055
H          2.87708        0.01149       -0.98963
H          3.60466        1.98587        0.32498
H          2.15105        0.66755        2.60763
H          1.55463        1.98345        1.86905
H          5.06154       -0.03652        0.56966
H          4.56586       -0.01785        2.27281
H          2.81583       -2.73546       -0.16838
H          4.26190       -2.73532        0.84078
H          4.24387       -1.81562       -0.67435
