19
-1837.65
C          1.83956       -0.62391       -1.18442
O          1.68821        0.47372       -0.29302
C          2.92783        1.12161        0.07603
C          3.76384        0.35617        1.05577
C          3.56849        2.01623       -0.95698
C          2.80112        2.62999        0.18280
C          3.50629        3.42912        1.22424
H          2.44181       -0.34589       -2.05402
H          0.84636       -0.92217       -1.53090
H          2.29416       -1.47322       -0.66749
H          4.70162        0.86709        1.29391
H          4.02943       -0.62653        0.65480
H          3.21042        0.20670        1.98815
H          3.12101        2.06986       -1.94293
H          4.64881        2.10126       -0.96339
H          1.82402        3.05085       -0.03303
H          4.56176        3.15814        1.32283
H          3.02227        3.29329        2.19630
H          3.46154        4.49305        0.97003
