14
-1467.66
C          0.98608       -0.06055        0.04832
C          2.50516        0.03303       -0.04660
C          3.02924       -0.76907       -1.23465
C          2.91883        1.49073       -0.16305
O          3.04555        2.08479       -1.22895
C          3.13093        2.18460        1.09707
N          3.29086        2.70343        2.12378
H          0.61225        0.49062        0.91797
H          0.66440       -1.10259        0.14594
H          0.50516        0.36392       -0.84011
H          2.95130       -0.38413        0.86481
H          2.59593       -0.42015       -2.17858
H          2.78736       -1.83120       -1.12333
H          4.11767       -0.67572       -1.31624
