17
-1665.49
N          1.04800        0.15210        0.54761
C          2.26907       -0.00886       -0.02216
N          2.63505       -1.09910       -0.59785
C          3.23926        1.20223        0.04512
C          2.69835        2.62945       -0.24542
C          3.68802        3.14954        0.81484
C          3.65720        1.74143        1.44018
H          0.93769        0.89834        1.22475
H          0.53639       -0.68742        0.78643
H          1.86953       -1.77493       -0.57691
H          4.13144        1.00297       -0.57108
H          1.64821        2.79415        0.01926
H          2.86563        2.99869       -1.26103
H          4.66608        3.42809        0.40539
H          3.32282        3.96045        1.45003
H          4.61604        1.37721        1.81848
H          2.90183        1.62547        2.22534
