15
-1437.23
C          1.10106        0.02603        0.16494
N          2.46611        0.09040       -0.33501
C          3.13397        1.17135       -0.13043
C          2.65778        2.41358        0.53842
C          3.52396        3.39398       -0.22106
O          4.74575        2.71607       -0.55915
N          4.42780        1.35047       -0.53427
H          0.74798       -1.00826        0.10225
H          0.43087        0.64107       -0.44410
H          1.03045        0.32758        1.21513
H          2.92460        2.36706        1.59888
H          1.59415        2.62228        0.41944
H          3.04583        3.71285       -1.15439
H          3.75421        4.28226        0.37396
H          4.72017        0.80435       -1.33979
