19
-1867.06
C          0.99456        0.00744       -0.00783
C          2.51360        0.00043        0.03954
C          3.08544        1.12637        0.89751
C          4.49968        0.65442        1.18254
C          4.35097       -0.84647        1.41422
O          5.49617       -1.54660        0.95777
C          3.08987       -1.27827        0.65844
H          0.62366       -0.81291       -0.62970
H          0.62431        0.94864       -0.42834
H          0.56374       -0.10588        0.99211
H          2.90208        0.10227       -0.98342
H          2.52424        1.23555        1.83395
H          3.07237        2.09000        0.37673
H          5.15897        0.86149        0.33044
H          4.92972        1.15826        2.05497
H          4.23320       -1.05828        2.48296
H          5.58858       -1.38171        0.00415
H          3.29275       -2.03175       -0.11118
H          2.37961       -1.72054        1.36703
