19
-1850.65
C          2.13479       -0.37113        1.34497
C          2.56884        0.18366       -0.00549
C          2.92403        1.65805        0.03971
C          1.78140        2.58378        0.36392
C          4.18291        2.05760       -0.23735
C          4.73801        3.44507       -0.26854
O          5.79648        3.51636        0.67519
H          1.97056       -1.45106        1.27179
H          1.19733        0.08238        1.68206
H          2.89745       -0.19481        2.11093
H          1.76748        0.02962       -0.73873
H          3.42242       -0.40823       -0.36018
H          0.93001        2.37382       -0.29188
H          2.02657        3.63952        0.23600
H          1.46129        2.44609        1.40171
H          4.92503        1.29828       -0.48133
H          4.01388        4.22438       -0.02629
H          5.14780        3.66039       -1.25996
H          5.42943        3.21483        1.52361
