15
-1525.8
C          4.45750       -0.89360        0.55282
O          3.27838       -0.13604        0.29965
C          3.41448        1.22297        0.19930
C          4.52938        1.96206        0.27231
C          4.54179        3.44503        0.16008
C          3.24453        4.20991        0.13315
O          5.62864        4.01775        0.08856
H          4.17238       -1.94761        0.62066
H          4.91023       -0.60363        1.50685
H          5.17429       -0.78795       -0.26795
H          2.42665        1.64131        0.03779
H          5.51194        1.52742        0.41236
H          2.59160        3.88635        0.94814
H          2.75218        4.07626       -0.83310
H          3.45275        5.27428        0.27957
