17
-1661.16
C          0.99176        0.00029        0.04122
C          2.52278       -0.00523       -0.02560
C          3.03299       -1.32967       -0.59133
O          2.69120       -1.45699       -1.96716
C          3.20648       -0.36759       -2.72253
O          2.68576        0.88022       -2.28313
C          3.02694        1.12452       -0.92254
H          0.62890        0.94635        0.45589
H          0.63264       -0.80673        0.68808
H          0.53611       -0.13133       -0.94519
H          2.90949        0.13300        0.99113
H          2.59640       -2.17760       -0.05298
H          4.12196       -1.40488       -0.48587
H          4.30320       -0.36149       -2.69505
H          2.90080       -0.50912       -3.76398
H          4.11563        1.23000       -0.84154
H          2.58609        2.08251       -0.62838
