16
-1607.6
C          0.48063       -0.09766       -0.11585
C          1.80412       -0.79324        0.04044
C          1.88501       -2.08957        0.38562
C          3.02585        0.05634       -0.17759
N          3.25756        0.14304       -1.59680
C          4.02886        1.13996       -2.12999
O          4.51757        2.07453       -1.51314
H          0.39641        0.72273        0.60441
H         -0.36240       -0.77614        0.05271
H          0.37907        0.31345       -1.12529
H          0.99565       -2.69006        0.55367
H          2.84323       -2.58560        0.51052
H          3.91796       -0.39011        0.27619
H          2.90217        1.05568        0.25387
H          3.02946       -0.65614       -2.17276
H          4.16987        1.01127       -3.21637
