17
-1665.09
C          1.06907       -0.03862       -0.00152
C          2.58069       -0.03472        0.08594
C          3.14067        1.10118        0.90849
O          4.43948        0.62363        1.26102
C          4.25256       -0.78793        1.42633
C          5.44123       -1.52951        0.84759
O          3.04580       -1.20156        0.77140
H          0.72431       -0.90398       -0.57731
H          0.69637        0.87221       -0.47948
H          0.61747       -0.12574        0.99256
H          3.02439       -0.04231       -0.91519
H          2.57720        1.26931        1.83321
H          3.21503        2.04094        0.35461
H          4.15239       -1.00563        2.49544
H          5.54919       -1.31311       -0.22132
H          5.31527       -2.61151        0.95192
H          6.36958       -1.22301        1.33910
