13
-1303.4
C          1.01231       -0.03376       -0.28151
N          2.44551        0.00264       -0.08515
C          3.19432        1.15091       -0.01294
C          4.52680        1.22886       -0.07931
C          5.19638        2.53872        0.01784
O          6.41429        2.64083       -0.06431
H          0.65170       -1.06198       -0.18642
H          0.75227        0.33274       -1.27921
H          0.50060        0.57791        0.46761
H          2.94969       -0.83694       -0.36404
H          2.58590        2.04548        0.11597
H          5.16567        0.36442       -0.20179
H          4.54348        3.41480        0.16507
