14
-1475.85
C          0.99294       -0.04639       -0.00691
C          2.46027        0.10702        0.00049
C          3.30269        1.20008        0.00261
C          4.61183        0.68034        0.01022
N          5.74888        1.38895        0.01457
C          4.49845       -0.68741        0.01206
O          3.18665       -1.04784        0.00623
H          0.49600        0.92861        0.00144
H          0.66158       -0.60517        0.87365
H          0.66895       -0.58644       -0.90177
H          2.99817        2.23627       -0.00110
H          5.76208        2.40355        0.02290
H          6.66653        0.95571        0.02998
H          5.20554       -1.50346        0.01689
