13
-1430.86
C          1.00728       -0.00701       -0.07493
C          2.49571       -0.03161        0.07081
N          3.14924        1.14578        0.06323
C          4.48862        1.08643        0.18690
C          5.18900       -0.08921        0.31326
C          4.42855       -1.23365        0.30600
N          3.08780       -1.23588        0.18574
H          0.62596        1.01897       -0.05178
H          0.54077       -0.56657        0.74193
H          0.71950       -0.46352       -1.02702
H          4.99753        2.04620        0.18051
H          6.26459       -0.11177        0.41094
H          4.88722       -2.21363        0.39900
