17
-1652.25
C          0.94528        0.06146       -0.18596
C          2.42193        0.00443        0.01865
O          2.80688       -0.15065        1.39747
C          3.30134       -0.69453       -0.98334
C          3.40250        0.79956       -0.82458
C          2.95918        1.71161       -1.91903
O          4.55787        1.27314       -0.10068
H          0.66621        0.04578       -1.24331
H          0.53729        0.97362        0.26275
H          0.46643       -0.79700        0.29400
H          3.52296        0.48400        1.59597
H          2.84038       -1.08785       -1.88359
H          4.10092       -1.31577       -0.60161
H          2.13887        1.29203       -2.51015
H          3.78951        1.91020       -2.60488
H          2.62506        2.66839       -1.50366
H          5.37779        0.92871       -0.49736
