18
-1707.17
O          2.65399        3.52958       -0.40297
C          2.31747        2.16630       -0.61536
C          3.04402        1.29365        0.39935
C          4.54016        1.26817        0.11521
C          5.38318        2.48553        0.56045
N          6.45084        1.53946        0.97276
C          5.41158        0.49353        1.12692
H          2.14823        4.05299       -1.04834
H          2.58319        1.89332       -1.64148
H          1.23528        2.06072       -0.48966
H          2.64902        0.27319        0.33626
H          2.85522        1.66232        1.41468
H          4.75392        0.96172       -0.91969
H          4.97101        3.05991        1.39868
H          5.67025        3.17995       -0.23430
H          7.11069        1.33929        0.22075
H          5.72070       -0.50826        0.81460
H          5.00686        0.43396        2.14428
