14
-1277.37
C          0.88874       -0.01699        0.02258
C          2.40671        0.01059       -0.02673
O          2.83753       -0.58451       -1.25331
C          2.95822        1.44453        0.05193
N          4.41615        1.42938       -0.13813
H          0.51362        0.42058        0.95234
H          0.52336       -1.04676       -0.05215
H          0.45852        0.53050       -0.82302
H          2.81251       -0.59404        0.79277
H          3.73065       -0.21028       -1.40514
H          2.70801        1.90529        1.01291
H          2.52527        2.05566       -0.74757
H          4.85304        0.94804        0.64926
H          4.76214        2.38911       -0.10262
