15
-1546.79
C          2.14827       -0.66082        1.33312
C          2.62729       -0.17910       -0.02920
C          3.00430        1.29356       -0.01706
N          1.94929        2.18503       -0.06357
C          4.30674        1.63646        0.00000
C          4.77607        2.96181        0.00000
N          5.16029        4.04680        0.00000
H          1.90021       -1.72694        1.29025
H          1.25182       -0.12161        1.65858
H          2.92319       -0.52536        2.09611
H          1.84254       -0.34845       -0.77606
H          3.47958       -0.79479       -0.34129
H          1.07358        1.84262        0.32548
H          2.16032        3.14349        0.21441
H          5.07007        0.86633        0.02006
