15
-1473.46
C          1.02855        1.90091       -1.05249
N          2.31748        1.96984       -1.09873
N          2.93070        1.27200       -0.11129
C          4.39824        1.36061       -0.08210
C          4.89155        2.78085        0.21161
C          6.36377        2.82741        0.28124
C          7.56202        2.87194        0.33321
H          0.42977        2.43159       -1.80927
H          0.47183        1.33736       -0.28342
H          2.67526        0.28122       -0.14628
H          4.80906        0.99773       -1.03260
H          4.76347        0.68204        0.69866
H          4.47257        3.13123        1.16250
H          4.54740        3.47250       -0.56628
H          8.62540        2.91610        0.37582
