15
-1550.55
O          0.96779        0.35970       -0.19849
C          2.30109       -0.13958       -0.24392
C          3.27989        1.01680       -0.05078
C          4.72023        0.56478       -0.02351
C          5.47987        0.68452        1.07690
C          5.30611        0.02189       -1.20628
C          5.79244       -0.43694       -2.20399
H          0.37749       -0.39800       -0.35194
H          2.44986       -0.62743       -1.21271
H          2.41519       -0.88621        0.54898
H          3.01969        1.55027        0.87330
H          3.13892        1.75412       -0.85214
H          5.08400        1.10440        1.99607
H          6.51978        0.37067        1.08778
H          6.22507       -0.84201       -3.08869
