15
-1511.28
O          1.13450        0.14988        0.22834
C          2.52143       -0.03382       -0.03988
C          2.80270       -1.46180       -0.53526
O          2.90738       -1.39879       -1.97541
C          3.23539       -0.03996       -2.34285
C          2.11584        0.94848       -2.43307
C          2.94144        0.84490       -1.17244
H          0.97628        1.10821        0.26136
H          3.07095        0.17303        0.88379
H          2.01763       -2.17236       -0.26296
H          3.76870       -1.81777       -0.16247
H          4.13177        0.13741       -2.92433
H          2.25984        1.81606       -3.06566
H          1.10290        0.56204       -2.43509
H          3.64670        1.61953       -0.91469
