18
-1711.15
C          0.88829       -0.09354        0.12394
C          2.40363       -0.02359       -0.04180
C          2.84509       -0.05034       -1.50464
O          2.36263        1.10161       -2.18997
C          3.10197        1.05042        0.82979
N          4.08383        0.03908        1.26737
C          3.16971       -1.03836        0.84267
H          0.60009       -0.13649        1.18015
H          0.48338       -0.98470       -0.36623
H          0.40153        0.78576       -0.30945
H          2.47395       -0.94407       -2.01801
H          3.93630       -0.04864       -1.59699
H          1.41204        0.97457       -2.34976
H          2.49647        1.44137        1.65643
H          3.53526        1.90209        0.29590
H          4.95324        0.07190        0.73379
H          3.65711       -1.86745        0.31909
H          2.59464       -1.45888        1.67668
