14
-1451.07
C          1.03495       -0.00635       -0.05396
C          2.52492        0.01603       -0.02029
C          3.31467       -0.69139       -1.08690
C          3.29744        0.81653       -1.04171
C          4.48324        1.50454       -0.62144
C          5.47509        2.08415       -0.27456
H          0.63265        0.78077        0.59099
H          0.66472       -0.96909        0.31150
H          0.64258        0.14829       -1.06428
H          2.90191       -0.03443        0.99559
H          2.78029       -1.17699       -1.89554
H          4.21706       -1.21218       -0.78488
H          2.72723        1.31537       -1.81995
H          6.35558        2.59861        0.03271
