15
-1525.86
C          1.11308        1.22507       -0.12430
N         -0.21490        1.35538        0.44449
C         -1.24905        0.72112       -0.18808
N         -1.44838       -0.51633       -0.42145
C         -0.56231       -1.50957        0.17722
C          0.91161       -1.31912        0.00219
C          1.61032       -0.18099       -0.13092
H          1.79954        1.83353        0.47597
H          1.13276        1.62870       -1.14359
H         -0.41508        2.33610        0.61369
H         -2.00276        1.44209       -0.54882
H         -0.81400       -2.46520       -0.30064
H         -0.79818       -1.63738        1.23865
H          1.47591       -2.25069        0.00078
H          2.68869       -0.27259       -0.25031
