14
-1427.01
C          2.66414       -1.24222       -1.20818
C          3.22034       -0.63377        0.05235
O          3.44933       -1.32422        1.04607
C          3.48419        0.86406        0.03195
C          4.94440        1.13208        0.23849
C          5.72900        1.77511       -0.63582
H          3.36321       -1.08222       -2.03231
H          1.69754       -0.78728       -1.43748
H          2.52343       -2.31727       -1.06724
H          2.89462        1.32419        0.83204
H          3.12870        1.28304       -0.91602
H          5.37641        0.77088        1.17151
H          5.35014        2.15831       -1.57798
H          6.78133        1.93525       -0.41842
