14
-1399.98
C          0.97943       -0.06669        0.14245
N          2.43216        0.04285        0.17062
C          3.15325       -1.21275       -0.03832
C          3.05600        1.25894       -0.05499
N          2.52782        2.43416       -0.04883
C          4.49052        1.32677       -0.34458
N          5.62967        1.31196       -0.57746
H          0.52267        0.63794        0.84496
H          0.63931       -1.06586        0.43494
H          0.60187        0.14038       -0.86418
H          2.59636       -2.06657        0.36255
H          4.11954       -1.20327        0.47670
H          3.31840       -1.38364       -1.10715
H          1.53500        2.37327        0.17117
