14
-1394.67
C          2.33109       -0.71169       -1.30820
N          2.87052       -0.39476        0.00928
C          3.53156        0.92626        0.03240
C          4.92086        0.87622       -0.57988
O          5.51254       -0.13307       -0.94590
C          5.63705        2.19792       -0.69968
O          5.12726        3.23417       -0.30917
H          1.83826       -1.68830       -1.27054
H          3.11199       -0.76137       -2.07309
H          1.57856        0.02251       -1.61322
H          3.56244       -1.10762        0.25646
H          3.64355        1.22963        1.07850
H          2.91950        1.67487       -0.48160
H          6.63585        2.13237       -1.15910
