17
-1659.1
C          0.92891        0.02914       -0.00619
C          2.45505       -0.04282       -0.02729
C          3.00638        0.14670       -1.43322
C          3.00356       -1.29527        0.65900
N          3.19133       -0.81291        2.02527
N          3.43203        0.52142        2.05657
C          3.00877        0.98223        0.92467
H          0.52976       -0.06168        1.01078
H          0.49095       -0.77197       -0.61144
H          0.57549        0.98733       -0.40455
H          4.10187        0.18458       -1.43277
H          2.65510        1.08813       -1.87088
H          2.69550       -0.67173       -2.09128
H          3.97058       -1.59813        0.24056
H          2.31922       -2.14781        0.61961
H          3.88612       -1.34749        2.54835
H          3.02321        2.05024        0.66261
