14
-1499.45
C          0.99132       -0.00942        0.08839
C          2.52000        0.00000        0.00000
C          2.97707       -0.75839       -1.25514
C          4.41999       -1.04147       -1.22679
N          5.55490       -1.28637       -1.20929
C          3.00202        1.36117        0.00000
C          3.39930        2.48307        0.00000
H          0.64630        0.51540        0.98675
H          0.60959       -1.03505        0.13447
H          0.53575        0.48320       -0.77860
H          2.90475       -0.51615        0.88975
H          2.73073       -0.19244       -2.16246
H          2.44290       -1.71430       -1.32389
H          3.76139        3.48592        0.00323
