18
-1765.47
C          0.81898       -0.03225       -0.52409
C          2.25163        0.00255       -0.03284
C          3.26123       -0.74525       -0.89320
C          3.23732        0.75215       -0.91759
C          2.45413        0.03124        1.50176
C          1.56723        0.78473        2.46255
N          1.50752       -0.66799        2.37324
H          0.76270       -0.07488       -1.61763
H          0.28110        0.86505       -0.20523
H          0.29836       -0.91262       -0.13569
H          2.90403       -1.27771       -1.76801
H          4.09197       -1.23584       -0.39811
H          4.05561        1.28113       -0.44160
H          2.86618        1.24109       -1.81179
H          3.49518       -0.05422        1.81457
H          0.71083        1.32166        2.07764
H          2.01038        1.20047        3.35804
H          2.00105       -1.10951        3.14976
