19
-1846.73
C          1.57617        0.04305        1.38400
C          2.15649        0.32887        0.00830
C          3.26455        1.33662        0.07895
C          3.44641        2.34652       -1.02767
C          2.94940        2.79316        0.32503
C          3.81707        3.59621        1.23513
O          3.49016        4.96923        1.09102
H          0.80337       -0.72914        1.31971
H          1.12180        0.94311        1.81277
H          2.35162       -0.30136        2.07649
H          1.35505        0.67356       -0.65493
H          2.54978       -0.59963       -0.41998
H          4.15918        0.92142        0.53237
H          2.74046        2.34937       -1.85108
H          4.46089        2.59281       -1.32187
H          1.90533        3.07045        0.42291
H          4.88271        3.46687        1.01697
H          3.64321        3.30891        2.27650
H          3.57608        5.17934        0.14787
