15
-1428.62
C          0.89711        0.09861       -0.26471
C          2.38766       -0.05266       -0.11282
N          3.04069       -1.17586       -0.05343
N          2.28967       -2.30019       -0.09647
C          3.19563        1.18699       -0.05378
C          2.81846        2.34773        0.83430
O          3.83361        1.41895        1.21805
H          0.62878        1.13476       -0.48667
H          0.40630       -0.20332        0.66480
H          0.53586       -0.52859       -1.08458
H          2.90741       -3.10346       -0.24288
H          1.86523       -2.47504        0.81848
H          3.78438        1.39398       -0.93917
H          1.88879        2.31998        1.38761
H          3.13589        3.34008        0.53964
