20
-1911.07
C          2.36370       -0.47149       -1.50860
C          2.44870        0.01439       -0.07099
C          3.25971        1.30052        0.01285
C          2.59173        2.59551       -0.53301
C          3.26349        3.34935        0.63774
C          3.25218        2.00682        1.39860
N          4.53643        1.81006        2.06059
H          1.79770       -1.40689       -1.56175
H          3.36169       -0.65144       -1.92241
H          1.86468        0.26556       -2.14653
H          2.92309       -0.76047        0.54146
H          1.43738        0.16454        0.32287
H          4.26778        1.16040       -0.40843
H          1.49632        2.59868       -0.48423
H          2.90343        2.90449       -1.53413
H          4.25059        3.75097        0.37655
H          2.66546        4.14997        1.08133
H          2.36813        1.83785        2.02189
H          5.35290        2.00405        1.48125
H          4.66823        0.86510        2.42076
