12
-1339.76
N          1.03499        0.07255       -0.18210
C          2.39141       -0.03802       -0.10137
C          3.13223       -1.15033       -0.04972
C          4.52162       -0.68322        0.03276
O          5.50590       -1.39380        0.10589
C          4.52585        0.78446        0.02034
C          3.23829        1.12596       -0.06036
H          0.53156       -0.76946        0.08546
H          0.65696        0.90990        0.25323
H          2.83608       -2.18120       -0.06490
H          5.40558        1.39900        0.06102
H          2.86898        2.13972       -0.10537
