20
-1914.15
C          0.80610       -0.60066        0.79041
C          2.12651       -0.58831        0.01468
C          2.27122       -1.89516       -0.76757
N          2.13248        0.58878       -0.86396
C          3.43395        0.83614       -1.47859
C          3.34711        2.07966       -2.30978
C          4.12776        3.15789       -2.15565
H          0.69407        0.30715        1.39399
H          0.76627       -1.45628        1.47370
H         -0.05583       -0.66863        0.11662
H          2.94137       -0.51276        0.74555
H          1.51604       -1.97404       -1.55746
H          2.15126       -2.75836       -0.10371
H          3.25915       -1.98124       -1.23054
H          1.88494        1.41340       -0.31620
H          3.71589        0.01401       -2.14428
H          4.21077        0.93558       -0.71133
H          2.59599        2.08040       -3.09741
H          4.89498        3.20318       -1.38990
H          4.00967        4.02209       -2.80189
