13
-1278.26
O          1.29661       -0.11722        1.13076
N          2.56512        0.05564        0.56911
C          2.77119        1.31493        0.03775
N          1.79668        2.12873       -0.23073
C          4.19729        1.74662       -0.27943
C          5.05189        1.71979        0.91925
C          5.74980        1.70424        1.89624
H          0.84248       -0.68080        0.47431
H          3.32703       -0.30010        1.14847
H          0.94153        1.65934        0.09122
H          4.18446        2.75295       -0.71203
H          4.59309        1.06356       -1.03933
H          6.36829        1.70579        2.76496
