15
-1587.01
O          0.92348       -0.09821        0.11502
C          2.34779       -0.00266        0.11981
C          2.79936        1.32677       -0.53508
C          3.78825        1.19511       -1.66235
C          4.20418        0.00875       -2.12596
C          3.71550       -1.22810       -1.57343
C          2.86013       -1.24595       -0.54185
H          0.58099        0.69684        0.55508
H          2.66544       -0.01396        1.16929
H          3.25999        1.95221        0.24013
H          1.92998        1.88558       -0.90285
H          4.16546        2.11013       -2.10926
H          4.91477       -0.04975       -2.94567
H          4.05610       -2.15509       -2.02552
H          2.50466       -2.19524       -0.15301
