17
-1646.58
C          1.01281        0.05568       -0.08189
C          2.51361       -0.07902       -0.02300
C          3.00198       -1.49638       -0.14112
C          3.27782        1.01827        0.12252
C          4.75643        1.04611        0.18546
N          5.39471        2.16370        0.34480
N          6.73826        2.00921        0.38433
H          0.68398        1.09727        0.00017
H          0.54920       -0.50401        0.73729
H          0.63377       -0.33781       -1.03099
H          2.55380       -2.11378        0.64492
H          4.08449       -1.59975       -0.05105
H          2.71193       -1.91284       -1.11160
H          2.82499        2.00396        0.20091
H          5.28595        0.08471        0.08637
H          7.18118        2.93099        0.34896
H          7.02938        1.61543        1.28268
