20
-1912.98
C          0.91100       -0.03033        0.11700
C          2.43321       -0.04914       -0.03001
C          2.83350        0.03130       -1.50819
C          3.15575        1.03472        0.83744
C          4.19964       -0.04038        1.21322
C          3.11439       -1.09646        0.91616
N          3.69530       -2.20523        0.17080
H          0.60574       -0.03145        1.16870
H          0.46561       -0.90957       -0.35978
H          0.48336        0.86324       -0.34986
H          3.91965        0.06781       -1.63996
H          2.41977        0.93342       -1.97207
H          2.45429       -0.83298       -2.06310
H          2.57568        1.39083        1.69700
H          3.55094        1.90449        0.30471
H          5.07417       -0.04252        0.55028
H          4.55155       -0.00541        2.24838
H          2.52990       -1.39209        1.79390
H          4.34630       -1.94443       -0.56774
H          3.00256       -2.81410       -0.26223
