13
-1254.7
C          0.94320        0.02031       -0.13370
C          2.42598       -0.01505        0.04212
O          2.84364       -0.07007        1.41107
C          3.28361       -0.75552       -0.94551
C          3.31531        0.74925       -0.89836
H          0.65513        0.05888       -1.18998
H          0.52319        0.90124        0.36332
H          0.48705       -0.87188        0.30841
H          3.81052       -0.03394        1.50457
H          2.80290       -1.22570       -1.79601
H          4.14438       -1.29894       -0.57523
H          4.19964        1.23044       -0.49865
H          2.85558        1.29171       -1.71675
