18
-1706.1
C          2.08682        1.45943        2.25328
C          2.86316        1.41747        0.95185
O          3.85880        2.43759        0.98333
C          4.63845        2.44046       -0.21361
C          5.57655        3.60418       -0.16450
C          6.99853        3.42789        0.29958
N          6.69405        3.67242       -1.10905
H          1.29625        0.70317        2.26024
H          1.63473        2.44560        2.40273
H          2.75231        1.28121        3.10471
H          2.18389        1.59037        0.11064
H          3.33942        0.43810        0.83435
H          3.97565        2.54837       -1.08234
H          5.17890        1.48963       -0.29702
H          5.06801        4.53629        0.04839
H          7.35006        2.43389        0.54252
H          7.46902        4.23671        0.84344
H          6.89430        4.64182       -1.35887
