19
-1789.95
C          1.07116        0.03996       -0.20623
C          2.57189       -0.02820       -0.00211
O          3.12269        1.24894       -0.31823
C          4.54854        1.31637       -0.13702
C          5.27726        0.66463       -1.30673
C          4.91063        2.80426       -0.04432
O          4.23232        3.39160        1.06578
H          0.60085       -0.91855        0.03121
H          0.83503        0.30165       -1.24328
H          0.62969        0.81717        0.42678
H          2.99320       -0.79816       -0.65469
H          2.79277       -0.27810        1.04094
H          4.81324        0.82917        0.80981
H          4.92436        1.06995       -2.26060
H          5.09389       -0.41340       -1.33367
H          6.35778        0.81898       -1.23472
H          4.59743        3.34567       -0.94306
H          5.98632        2.94530        0.09847
H          3.30116        3.11128        0.96679
