19
-1787.65
N          1.40289        0.18137        1.11851
C          1.94251        0.47495       -0.20016
C          3.12816        1.36490       -0.01875
C          3.44158        2.44906       -1.02165
C          2.93979        2.81988        0.35247
C          3.84157        3.43463        1.37042
N          3.63636        4.87402        1.33534
H          0.55913       -0.37906        1.01436
H          1.10477        1.05451        1.55278
H          1.17289        0.94600       -0.82124
H          2.24874       -0.45535       -0.68929
H          3.96546        0.82877        0.41670
H          2.76787        2.59725       -1.85827
H          4.48341        2.62843       -1.26149
H          1.91968        3.17959        0.44361
H          4.89394        3.20287        1.17327
H          3.59150        3.05212        2.36476
H          3.91348        5.22630        0.42064
H          4.25916        5.31325        2.01102
