12
-1104.57
C          0.99077       -0.02852       -0.00526
C          2.50739        0.02366        0.01020
C          3.02364        1.45522        0.01616
O          4.44496        1.45605        0.01237
H          0.64663       -1.06762       -0.00913
H          0.58963        0.46504       -0.89688
H          0.57171        0.46463        0.87801
H          2.90772       -0.50685       -0.86128
H          2.88798       -0.50913        0.88888
H          2.67842        2.00107        0.90099
H          2.68420        1.99662       -0.87358
H          4.73964        0.98892        0.81297
