17
-1778.83
C          0.88996        0.00360        0.24581
C          2.34927        0.01402       -0.01414
C          3.15183        1.08326       -0.16279
C          4.55653        0.73633       -0.42078
C          5.36242       -0.00131        0.61071
C          4.57772       -0.78177       -0.41224
C          3.16036       -1.25475       -0.14854
H          0.49767       -1.01931        0.23296
H          0.35462        0.57376       -0.52082
H          0.66863        0.43422        1.22769
H          2.81643        2.11165       -0.10581
H          5.06019        1.25355       -1.22746
H          6.44259        0.01632        0.51312
H          5.01903       -0.00130        1.63976
H          5.09433       -1.30974       -1.20003
H          3.11723       -1.85280        0.76689
H          2.79744       -1.85277       -0.99048
