13
-1405.32
C          0.98309       -0.02477        0.02140
C          2.47706       -0.01179       -0.01072
C          3.20324        1.17298       -0.07255
C          4.58366        1.09528       -0.09714
N          5.24933       -0.07648       -0.06328
N          4.54738       -1.23830       -0.00206
C          3.19801       -1.19624        0.02325
H          0.57266        0.98910       -0.02692
H          0.62848       -0.48665        0.94832
H          0.59058       -0.58575       -0.83274
H          2.71322        2.13955       -0.10131
H          5.20555        1.98146       -0.14535
H          2.71274       -2.16476        0.07271
