18
-1668.51
C          0.97535       -0.11571       -0.02762
C          2.50923       -0.01783       -0.06872
N          3.01890       -0.77629        1.10506
C          3.05548       -0.67578       -1.35674
O          2.78910       -2.07858       -1.34696
C          2.97023        1.45724       -0.00209
O          2.61456        2.05755        1.24450
H          0.52903        0.43327       -0.86468
H          0.56296        0.30060        0.89837
H          0.63230       -1.15470       -0.09523
H          2.73356       -0.25726        1.94312
H          4.03912       -0.70517        1.12222
H          4.14095       -0.54883       -1.43598
H          2.59586       -0.24543       -2.25281
H          2.84070       -2.33195       -0.40057
H          2.53279        2.05191       -0.81278
H          4.05984        1.52504       -0.09026
H          1.65553        2.21917        1.23025
