17
-1699.06
C          1.37457        2.88956        0.00161
C          2.63175        2.49835       -0.20600
O          3.16872        1.43492        0.46820
C          4.53770        1.18122        0.09242
C          5.61830        2.12221        0.69052
C          6.51761        0.88329        0.85114
C          5.23030        0.03915        0.88075
H          0.95443        3.73183       -0.53617
H          0.74312        2.37078        0.71550
H          3.28505        2.99505       -0.91101
H          4.64215        1.03326       -0.99274
H          5.33015        2.59010        1.63907
H          6.00188        2.89207        0.01581
H          7.15416        0.68509       -0.01866
H          7.12875        0.85187        1.75631
H          5.29084       -0.92294        0.36513
H          4.82462       -0.12074        1.88657
