10
-980.82
C          0.99838       -0.00491       -0.00737
C          2.50169        0.03443        0.00508
C          3.22549       -1.28473       -0.00532
O          3.11879        1.09885        0.01820
H          0.60232        1.01431        0.00058
H          0.63800       -0.53033        0.88067
H          0.65216       -0.51122       -0.91266
H          2.51223       -2.11380        0.01770
H          3.86715       -1.35213        0.87740
H          3.82386       -1.36180       -0.91704
