15
-1520.52
C          0.90104        0.18457       -0.04793
C          2.42450        0.22169       -0.04362
O          2.88183       -0.59355        1.03083
C          2.99046       -0.27340       -1.35480
C          3.81328       -1.31897       -1.52692
C          2.90918        1.66117        0.16435
O          3.84494        1.95635        0.90723
H          0.47641        0.80216       -0.84729
H          0.50323        0.55198        0.90559
H          0.53113       -0.84061       -0.16730
H          3.74784       -0.22278        1.29311
H          2.69197        0.28035       -2.24431
H          4.14675       -1.92919       -0.69194
H          4.16422       -1.59721       -2.51579
H          2.39471        2.43473       -0.43165
