18
-1768.47
C          0.88145        0.09331        0.18835
C          2.39170        0.07693       -0.01443
C          3.16211        1.06169        0.90781
C          4.09690       -0.11927        1.20047
N          3.03876       -1.03164        0.73002
C          2.81118        0.11107       -1.45018
C          2.55585       -0.90110       -2.29105
H          0.61523        0.05958        1.25167
H          0.39562       -0.76294       -0.29334
H          0.44209        1.00714       -0.22791
H          2.60218        1.40421        1.78702
H          3.63176        1.93103        0.43806
H          5.00325       -0.13789        0.58417
H          4.37970       -0.24815        2.24868
H          3.37488       -1.79754        0.14984
H          3.32346        0.99729       -1.81454
H          2.03210       -1.79719       -1.97222
H          2.86285       -0.84648       -3.33107
