17
-1632.42
C          1.71303        1.49779        1.89183
O          3.04237        1.66737        1.41611
C          3.12986        1.43737        0.00906
C          4.57623        1.61063       -0.44462
C          5.04008        3.02751       -0.29448
C          5.99385        3.42505        0.80026
O          6.44084        3.21163       -0.54662
H          1.69871        1.72253        2.96142
H          1.38558        0.46410        1.74650
H          1.03104        2.18468        1.38130
H          2.47401        2.13943       -0.51899
H          2.80222        0.41424       -0.20833
H          4.65543        1.32659       -1.49978
H          5.22416        0.93817        0.13001
H          4.36108        3.76419       -0.70143
H          6.27120        2.68892        1.54499
H          5.96326        4.44432        1.16278
