13
-1372.24
N          0.91304        0.27674       -1.17394
C          2.19959        0.26310       -1.16655
N          2.95472        1.24461       -0.61693
C          4.31859        1.35091       -0.55138
C          5.02258        2.34740        0.00000
C          6.42858        2.34740        0.00000
C          7.61874        2.34740        0.00000
H          0.56665       -0.56734       -1.64375
H          2.77468       -0.56594       -1.61696
H          2.41632        2.00115       -0.20664
H          4.83573        0.51057       -1.01295
H          4.51614        3.18897        0.46150
H          8.68405        2.34798        0.00032
