13
-1309.06
C          0.90454       -0.00907       -0.00080
N          2.35446       -0.11793        0.00553
C          3.00405        0.98295        0.00659
N          2.61623        2.30011        0.00310
C          3.62766        3.22562        0.00674
C          4.86030        2.70022        0.01314
S          4.79487        0.94776        0.01476
H          0.46997       -1.01352       -0.00957
H          0.54485        0.51274       -0.89402
H          0.53716        0.50088        0.89610
H          1.64847        2.58018       -0.00111
H          3.37901        4.27847        0.00445
H          5.79014        3.25067        0.01703
