12
-1259.05
N          1.02821        0.05417        0.03484
C          2.38381       -0.03349       -0.00761
O          2.98237       -1.09736       -0.05377
C          3.09950        1.21763        0.00000
C          3.69458        2.24834        0.00000
C          4.41658        3.49888        0.00000
O          3.51092        4.57744       -0.18986
H          0.54934        0.94022        0.10101
H          0.49728       -0.80478        0.04764
H          5.16435        3.53345       -0.79808
H          4.93350        3.65725        0.95090
H          3.06795        4.42193       -1.04087
