13
-1314.51
C          0.99643       -0.07691        0.05392
C          2.19551       -0.01292        0.03024
C          3.63490        0.06559       -0.00494
C          4.29731        1.11231        0.91646
C          5.29582       -0.01390        1.23402
N          4.23502       -0.97732        0.86440
H         -0.06678       -0.13861        0.08175
H          4.04918        0.06553       -1.02188
H          3.69784        1.43036        1.77861
H          4.71470        1.99443        0.42397
H          6.16876       -0.04191        0.57129
H          5.63092       -0.07339        2.27268
H          4.55278       -1.80512        0.36620
