15
-1546.96
C          2.39536       -0.49588       -1.40713
C          2.46974        0.08526       -0.00660
N          2.96342        1.44841       -0.00546
C          2.21438        2.59027        0.02463
C          3.11198        3.63224        0.01831
C          4.37523        3.01457       -0.01339
N          4.28923        1.68138       -0.02625
H          2.01376       -1.52088       -1.37360
H          3.38250       -0.51407       -1.88089
H          1.73033        0.09648       -2.04457
H          3.13639       -0.50960        0.62748
H          1.47842        0.08905        0.45938
H          1.13453        2.56630        0.04519
H          2.88746        4.68889        0.03472
H          5.35304        3.47760       -0.02704
