13
-1314.85
N          1.92568       -0.45447       -1.21206
C          2.59509       -0.13084        0.04422
C          3.00275        1.30076        0.07155
C          2.28451        2.44349       -0.22921
C          3.09102        3.60028       -0.04373
N          4.33778        3.40428        0.37508
S          4.57621        1.77357        0.56121
H          1.70384       -1.44831       -1.22240
H          2.57791       -0.30229       -1.98077
H          3.45644       -0.79621        0.16951
H          1.90806       -0.32486        0.87524
H          1.25548        2.44199       -0.56441
H          2.77983        4.62355       -0.21193
