13
-1355.63
C          1.01342       -0.06297       -0.28168
N          2.42152        0.00866        0.09027
C          2.96070        1.38568        0.00000
C          2.40703        2.21894        1.08996
C          1.95643        2.89747        1.97397
C          4.40470        1.38568        0.00000
N          5.55571        1.38568        0.00000
H          0.68210       -1.10532       -0.23392
H          0.84876        0.29120       -1.30460
H          0.37844        0.50738        0.40295
H          2.95455       -0.58851       -0.54244
H          2.64030        1.81770       -0.95775
H          1.56115        3.49206        2.76532
