19
-1844.49
C          1.12001       -0.16958       -0.08001
C          2.63503       -0.08388       -0.16556
C          3.13904        1.31279        0.19515
C          4.65902        1.35992        0.12749
C          5.31197        1.39499       -1.26132
C          6.00022        2.65838       -0.75226
O          5.14276        2.70297        0.41253
H          0.78227       -1.17948       -0.33372
H          0.64734        0.53141       -0.77574
H          0.76989        0.06113        0.93142
H          2.95507       -0.34936       -1.17958
H          3.07771       -0.82493        0.51000
H          2.81100        1.56820        1.21049
H          2.70022        2.05703       -0.48093
H          5.13068        0.64703        0.81671
H          4.63020        1.56365       -2.09929
H          5.97886        0.55929       -1.48509
H          7.05005        2.54082       -0.46708
H          5.87935        3.54356       -1.38217
