14
-1385.72
C          1.08761        0.04257        0.05951
C          2.58274       -0.00961        0.03990
N          3.23137       -1.13138       -0.13167
C          4.66564       -0.72290       -0.09620
C          4.68085        0.80189       -0.24796
N          3.33505        1.12986        0.16117
H          0.66783       -0.96383       -0.00982
H          0.73597        0.63830       -0.78716
H          0.75230        0.51078        0.98835
H          5.09568       -1.02814        0.86495
H          5.22547       -1.20927       -0.90033
H          4.83571        1.08724       -1.29483
H          5.43842        1.27963        0.37748
H          2.93404        2.00064       -0.16487
