15
-1532.33
C          0.88869        0.00655        0.10008
C          2.23021        0.01058       -0.01168
C          2.99730        1.28997       -0.11920
N          4.33725        1.09231        0.37502
C          4.97626       -0.04560       -0.00776
N          4.44192       -1.17651       -0.26796
C          3.00046       -1.28401       -0.02446
H          0.31254        0.92656        0.10938
H          0.33387       -0.92439        0.17720
H          2.51844        2.08941        0.45710
H          3.04093        1.60789       -1.16735
H          4.90289        1.93324        0.35786
H          6.06759        0.08581       -0.10277
H          2.58410       -1.93745       -0.80027
H          2.86168       -1.79422        0.93692
