13
-1255.84
C          2.02181       -0.12890       -0.04722
C          0.71898       -0.80919        0.07552
N         -0.41871       -1.22577       -0.74381
N         -1.53726       -0.52946       -0.28827
C         -1.37123        0.65976        0.23107
O         -0.17138        1.31831        0.37925
C          0.85810        0.68898       -0.39484
H          2.67923       -0.45053       -0.84743
H          2.55818        0.12468        0.86069
H          0.54698       -1.05705        1.12659
H         -0.59553       -2.23166       -0.69797
H         -2.19733        1.25634        0.64145
H          0.81652        0.91574       -1.46154
