20
-1894.96
C          0.96898       -0.11275        0.01023
C          2.49909       -0.00755       -0.01314
C          3.02566       -0.81186       -1.20825
C          2.98377        1.46883       -0.04214
C          2.45752        2.27315        1.15312
C          4.51376        1.57387       -0.06578
H          0.55329        0.29493        0.93659
H          0.64768       -1.15880       -0.04670
H          0.52209        0.42383       -0.83385
H          2.87772       -0.48510        0.89992
H          2.75504       -0.33539       -2.15690
H          2.61135       -1.82668       -1.21018
H          4.11444       -0.91600       -1.17317
H          2.60509        1.94636       -0.95517
H          2.72821        1.79646        2.10154
H          1.36873        2.37699        1.11816
H          2.87153        3.28772        1.15508
H          4.96109        1.03732        0.77821
H          4.83523        2.62028       -0.00880
H          4.92958        1.16645       -0.99246
