13
-1345.67
C          0.89329        0.08175       -0.07054
C          2.38846        0.07177       -0.06927
N          3.05790        1.06234        0.42381
N          4.42756        0.82906        0.31403
C          5.09661        1.81256        0.80351
C          6.51444        1.61294        0.71059
C          7.70297        1.45142        0.63558
H          0.53349       -0.78502        0.48968
H          0.54011        0.00290       -1.10186
H          0.50658        0.99823        0.38158
H          2.88428       -0.81379       -0.50554
H          4.68389        2.72760        1.25464
H          8.75567        1.29926        0.56463
