15
-1458.86
C          1.07266       -0.14607       -0.15660
N          2.49080        0.00200        0.14030
C          2.96070        1.38568        0.00000
C          2.44291        2.27708        1.13082
C          4.40470        1.38568        0.00000
C          5.59486        1.38568        0.00000
H          0.80497       -1.20704       -0.10994
H          0.82986        0.21349       -1.16162
H          0.44606        0.37267        0.57401
H          3.01911       -0.57959       -0.51010
H          2.61720        1.79561       -0.95839
H          2.71742        1.88013        2.11609
H          1.35341        2.38179        1.09933
H          2.86658        3.28636        1.05725
H          6.66025        1.38115        0.00695
