15
-1477.53
N          0.97442        0.08142        0.06448
C          2.43489        0.01795       -0.07147
C          3.10640        0.99996        0.91134
N          4.07462       -0.07560        1.26027
C          3.04143       -1.07589        0.85366
C          3.65815       -2.20041        0.18446
C          4.16823       -3.13903       -0.36533
H          0.49496       -0.70310       -0.37662
H          0.56383        0.92310       -0.33730
H          2.81500        0.05670       -1.09842
H          2.50162        1.32022        1.76907
H          3.55865        1.88643        0.45654
H          4.89526       -0.08953        0.65482
H          2.40479       -1.37505        1.69748
H          4.62063       -3.97558       -0.84608
