17
-1750.8
C          0.98509       -0.00649       -0.03282
C          2.50295       -0.10758       -0.01422
C          3.15504        1.27863       -0.03012
C          4.66434        1.21366        0.02841
C          5.35478        1.71729        1.06361
C          5.38665        0.63292       -1.05715
C          5.99084        0.13584       -1.96846
H          0.53843       -1.00560       -0.01525
H          0.63760        0.50500       -0.93620
H          0.61748        0.54528        0.83819
H          2.82694       -0.69138       -0.88405
H          2.81540       -0.66018        0.87998
H          2.76868        1.86359        0.81482
H          2.85626        1.81903       -0.93753
H          4.85547        2.18199        1.90732
H          6.44004        1.68086        1.09412
H          6.52800       -0.30640       -2.77379
