17
-1666.96
C         -1.20652       -0.70733       -0.56780
N         -1.26184        0.77956       -0.46435
C         -0.02208        1.09212        0.30216
C          1.21599        0.71115       -0.54288
N          1.26949       -0.77712       -0.44606
C          0.01826       -1.09314        0.29616
C         -0.01134       -0.00279        1.35213
H         -1.10587       -1.02800       -1.60945
H         -2.12558       -1.13596       -0.15332
H         -2.07022        1.03317        0.10312
H         -0.00585        2.11550        0.68236
H          2.12823        1.13741       -0.11080
H          1.13369        1.03709       -1.58515
H          2.06836       -1.03299        0.13323
H         -0.00547       -2.11849        0.67140
H         -0.91068       -0.02360        1.97841
H          0.87662        0.01392        1.99371
