13
-1362.59
C          0.81586        0.01880        0.08049
C          2.30199        0.00172        0.24361
C          3.12022        0.94523       -0.25069
C          4.61632        0.93965       -0.09103
C          5.28198        0.93208       -1.40218
N          5.82011        0.93453       -2.43221
H          0.48887       -0.88308       -0.44587
H          0.47126        0.88922       -0.48666
H          0.33390        0.03845        1.06269
H          2.71030       -0.84184        0.79696
H          2.69721        1.78530       -0.80067
H          4.94560        0.07335        0.49409
H          4.91235        1.83463        0.46778
