11
-1227.75
N          1.03565       -0.00040       -0.25898
C          2.29780       -0.05447       -0.01333
C          3.14598       -1.24767        0.13941
C          4.37158       -0.76687        0.38364
N          4.42666        0.60043        0.40897
C          3.19965        1.15831        0.17554
O          2.84577        2.31280        0.11881
H          0.76075        0.99350       -0.30201
H          2.80354       -2.26283        0.06178
H          5.26797       -1.34988        0.55230
H          5.25479        1.15538        0.57645
