17
-1642.93
N          0.92332       -0.01237       -0.33456
C          2.36094       -0.07906       -0.01622
C          3.27345       -0.89509       -0.90087
N          2.69203       -1.61144       -2.05090
C          3.34723        0.61326       -0.92680
C          4.50193        1.29050       -0.32497
C          5.76369        1.22624       -0.77110
H          0.53001        0.86444        0.00722
H          0.42232       -0.75482        0.15260
H          2.58631       -0.09474        1.04820
H          4.08964       -1.42345       -0.41383
H          1.83706       -1.11380       -2.31871
H          2.36215       -2.52687       -1.74896
H          2.95166        1.11624       -1.80412
H          4.29930        1.91313        0.54441
H          6.01890        0.63067       -1.64268
H          6.56150        1.76870       -0.27554
