19
-1784.7
C          0.93446        1.08500       -1.20820
N          2.38913        1.01526       -1.18186
C          2.91461        1.59538        0.05108
C          4.40799        1.48499        0.04003
C          5.24461        2.53116        0.13929
C          6.73353        2.42247        0.12816
N          7.26382        3.22382       -0.96385
H          0.56570        0.63571       -2.13518
H          0.58149        2.12069       -1.17281
H          0.49523        0.52803       -0.37472
H          2.76066        1.54645       -1.96913
H          2.53596        1.04573        0.92073
H          2.60021        2.64136        0.14962
H          4.80860        0.47793       -0.05237
H          4.84199        3.53716        0.23924
H          7.06366        1.38347        0.01774
H          7.12834        2.79698        1.07796
H          6.93641        2.82713       -1.84441
H          8.27798        3.13191       -0.97735
