15
-1575.19
C          0.80308        0.42694       -0.04069
C          2.10996        0.18283        0.13502
C          3.26236        1.15175        0.00813
C          3.99586        1.38545        1.34350
O          3.82956        2.76799        1.73687
C          3.23367        3.35521        0.64553
C          2.89335        2.54564       -0.34931
H          0.07196       -0.36629        0.07914
H          0.42341        1.41114       -0.29551
H          2.39788       -0.83591        0.39375
H          3.96267        0.74576       -0.73164
H          5.07124        1.20065        1.23132
H          3.62875        0.74946        2.15692
H          3.09073        4.42032        0.72390
H          2.41752        2.84847       -1.26950
