17
-1603.13
C         -1.64954        0.60442        0.28701
N         -1.62307       -0.82400       -0.33190
C         -0.21895       -0.80053        0.14745
C          1.06493       -1.08063       -0.57083
C          1.92203        0.08636        0.00790
N          0.95365        1.14314        0.45035
C         -0.23485        0.70871       -0.26866
H         -2.39453        1.26178       -0.16997
H         -1.76912        0.61955        1.37754
H         -1.71636       -0.82633       -1.34911
H         -0.14818       -1.04436        1.22069
H          1.49103       -2.05389       -0.31051
H          0.97836       -1.01312       -1.66228
H          2.50910       -0.24892        0.86978
H          2.60829        0.47800       -0.75057
H          0.86209        1.09644        1.46631
H         -0.21733        0.95406       -1.34383
