10
-1166.69
O          1.00187        0.08549        0.50038
C          2.17828        0.01628        0.16372
C          2.91861       -1.27952        0.01170
C          3.34995       -1.46718       -1.37031
N          3.70916       -1.62251       -2.46259
C          2.93080        1.23849       -0.03760
C          3.55316        2.25228       -0.20498
H          2.25487       -2.09668        0.31458
H          3.77178       -1.28313        0.69829
H          4.09512        3.15758       -0.35687
