12
-1293.48
C          0.51278        1.20814       -0.06910
C          1.26125        0.09782       -0.05955
C          2.73803        0.18359       -0.21622
O          3.32493        1.24960       -0.34568
N          3.34561       -1.04475       -0.19918
C          4.69419       -1.21465       -0.32534
O          5.21936       -2.32160       -0.30976
H         -0.56492        1.15622        0.04501
H          0.95552        2.19392       -0.19079
H          0.80021       -0.87415        0.06315
H          2.81636       -1.89587       -0.09278
H          5.26790       -0.28053       -0.44171
