19
-1849.38
C          0.99898        0.06303        0.13930
C          2.49174       -0.09933       -0.05449
O          3.22837        0.95489        0.62568
C          4.16808       -0.02217        1.15757
C          5.50827        0.09319        0.45330
C          3.19747       -1.17270        0.79900
C          3.70911       -2.39739        0.06957
H          0.46237       -0.79302       -0.28188
H          0.64071        0.96562       -0.36590
H          0.73524        0.14200        1.19893
H          2.76179       -0.11514       -1.11831
H          4.28273        0.10622        2.24108
H          5.40063        0.06275       -0.63593
H          6.17358       -0.72206        0.75409
H          5.99714        1.03757        0.71418
H          2.60588       -1.47946        1.67288
H          4.26708       -2.13585       -0.83470
H          2.87469       -3.04058       -0.22851
H          4.36796       -2.98346        0.71821
