13
-1365.01
N          1.00920       -0.12709        0.26746
C          2.34903       -0.05114       -0.00960
N          2.97221       -1.15781       -0.27591
C          3.11850        1.25054        0.00000
C          2.45386        2.41673       -0.01991
C          4.52450        1.25054        0.00000
C          5.71466        1.25054        0.00000
H          0.64356        0.61279        0.85576
H          0.67476       -1.03580        0.56045
H          2.31514       -1.93717       -0.27937
H          1.37378        2.47624       -0.06729
H          2.99027        3.36133       -0.02761
H          6.77912        1.23333       -0.00476
