18
-1802.11
C          0.94792       -0.07594        0.01301
C          2.46789       -0.04248        0.01643
C          2.99726        1.39145        0.00680
C          4.52673        1.41926        0.00339
C          5.05846        2.85218        0.00583
C          6.52659        2.87029       -0.00300
N          7.68799        2.88613       -0.01034
H          0.59171       -1.11081        0.02393
H          0.54689        0.41189       -0.88115
H          0.54211        0.43236        0.89349
H          2.84132       -0.58363       -0.86071
H          2.83693       -0.56929        0.90413
H          2.62143        1.92739        0.88691
H          2.61838        1.91739       -0.87805
H          4.90192        0.88601       -0.87962
H          4.90685        0.88141        0.88139
H          4.69222        3.38325        0.89209
H          4.68129        3.39096       -0.87100
