15
-1469.39
N          1.05636       -0.00141        0.27752
C          2.46795        0.03740       -0.11659
C          3.23890        1.05434        0.75164
N          4.18521       -0.02630        0.99087
C          3.25142       -1.07498        0.61188
C          5.20670       -0.06396        1.88940
O          5.73005        0.91040        2.41292
H          0.53100       -0.76117       -0.15466
H          0.54545        0.85172        0.04895
H          2.65318        0.11265       -1.19313
H          2.75637        1.40123        1.67138
H          3.66881        1.89780        0.20561
H          3.68988       -1.83536       -0.03913
H          2.77477       -1.54475        1.47861
H          5.53592       -1.09375        2.10584
