13
-1407.43
C          0.99182       -0.00829        0.08698
C          2.52000        0.00000        0.00000
C          2.97997       -0.74068       -1.26170
C          4.41678       -1.04486       -1.21375
N          5.54574       -1.30299       -1.16144
C          3.00202        1.36117        0.00000
N          3.38623        2.44616        0.00000
H          0.64682        0.51278        0.98752
H          0.60915       -1.03379        0.12792
H          0.53717        0.48894       -0.77790
H          2.90533       -0.51938        0.88729
H          2.75459       -0.15696       -2.16332
H          2.43412       -1.68814       -1.35409
