15
-1482.38
N          1.49685       -0.24179       -0.98507
C          2.53982       -0.11151        0.01883
C          2.98260        1.31285        0.09403
C          4.24672        1.71427       -0.08821
N          4.60092        3.03229       -0.00385
C          5.86637        3.52126       -0.18317
O          6.14587        4.71000       -0.10195
H          1.18589       -1.21127       -1.01996
H          1.89071       -0.04122       -1.90359
H          3.37062       -0.78377       -0.22147
H          2.14205       -0.41275        0.99366
H          2.20420        2.03726        0.32346
H          5.03966        1.00492       -0.31383
H          3.89719        3.73368        0.20085
H          6.61912        2.74802       -0.40913
