14
-1415.77
O          1.96702       -1.42611       -0.28572
C          1.70267       -0.26056        0.48940
C          2.85881        0.74065        0.46220
O          2.69685        1.94087        0.66038
N          4.07754        0.12857        0.21965
C          5.26870        0.79477        0.14959
C          6.42021        0.16065       -0.08552
H          1.90441       -1.15435       -1.21983
H          1.53357       -0.56498        1.52623
H          0.79889        0.21886        0.10147
H          4.05625       -0.88069        0.09211
H          5.23659        1.87331        0.29523
H          6.47349       -0.91225       -0.23144
H          7.34983        0.71881       -0.13497
