17
-1782.01
C          0.95269       -0.03688       -0.12124
C          2.47138        0.01296        0.01011
C          3.12020       -1.22461       -0.55357
C          4.09863       -0.92233       -1.41750
C          4.25956        0.55562       -1.58203
C          3.12914        1.13913       -0.76890
C          2.74332        2.42134       -0.81634
H          0.48866        0.83669        0.35058
H          0.54753       -0.92837        0.37227
H          0.63427       -0.06139       -1.16991
H          2.74604        0.09286        1.06937
H          2.84047       -2.22752       -0.26720
H          4.71181       -1.64863       -1.93079
H          5.22992        0.87056       -1.18544
H          4.18123        0.83561       -2.63560
H          3.26377        3.14038       -1.44013
H          1.89887        2.78366       -0.23682
