13
-1430.17
C          2.73116       -1.22854        0.41132
C          2.24472       -0.00542        0.16580
C          3.02480        1.19084        0.11611
C          2.55080        2.47516       -0.11263
C          3.57024        3.46939       -0.10549
C          4.81011        2.92624        0.12826
S          4.73687        1.23369        0.33625
H          2.06294       -2.08413        0.43107
H          3.77980       -1.43068        0.59842
H          1.17593        0.09471       -0.00808
H          1.50300        2.69256       -0.27926
H          3.40102        4.52700       -0.26390
H          5.75948        3.43970        0.18764
