12
-1241.96
O          1.21065       -0.10449       -0.65789
C          2.27371        0.11596       -0.08688
N          2.86454        1.33076        0.08489
O          4.09957        1.42014        0.77048
C          4.43727        2.82770        0.77361
C          3.31918        3.49066        0.05380
C          2.44659        2.55690       -0.31457
H          2.86810       -0.69957        0.35750
H          5.39178        2.96278        0.25780
H          4.51561        3.16954        1.80918
H          3.23613        4.54843       -0.13408
H          1.51830        2.67650       -0.85478
