21
-2049.96
C          1.14840        0.26884       -0.71448
C          2.61847        0.52690       -0.42650
C          2.92057        2.02434       -0.35485
C          4.41071        2.27836       -0.10097
C          4.74568        3.74783        0.02672
C          4.57844        4.59453       -1.20452
C          5.20971        4.26662        1.17410
H          0.95424       -0.80755       -0.76183
H          0.85288        0.70887       -1.67260
H          0.51338        0.69460        0.06957
H          3.22463        0.06206       -1.21230
H          2.88963        0.04650        0.52046
H          2.32415        2.48216        0.44444
H          2.61409        2.49671       -1.29601
H          5.00482        1.84985       -0.91770
H          4.71240        1.74284        0.80845
H          5.12885        4.15878       -2.04452
H          4.95461        5.61255       -1.05601
H          3.52201        4.67112       -1.48046
H          5.34797        3.65555        2.06160
H          5.46604        5.31886        1.26098
