12
-1277.04
N          0.98159        0.03592       -0.00818
C          2.32063       -0.02248       -0.00135
C          3.18721        1.04357        0.00253
O          4.47359        0.59885        0.00955
C          4.41294       -0.75625        0.00975
O          5.59088       -1.35331        0.01612
C          3.10786       -1.19208        0.00308
H          0.47071        0.91383       -0.00245
H          0.39228       -0.79048       -0.00169
H          3.06661        2.11668        0.00125
H          5.41598       -2.30756        0.01516
H          2.77263       -2.21741        0.00158
