16
-1684.45
C          0.92968       -0.08914       -0.00229
C          2.41027        0.03373       -0.00290
C          3.23479        1.14788       -0.00055
C          2.81486        2.57401        0.00355
C          4.57386        0.66679       -0.00306
C          4.52727       -0.70701       -0.00678
N          3.21183       -1.08322       -0.00671
H          0.44734        0.89299        0.01049
H          0.59157       -0.64256        0.87967
H          0.58940       -0.62081       -0.89668
H          3.68162        3.24267        0.00939
H          2.21235        2.79299        0.89090
H          2.21886        2.79980       -0.88650
H          5.47655        1.26449       -0.00227
H          5.31564       -1.44753       -0.00952
H          2.88007       -2.03798       -0.00912
