17
-1567.19
C          2.12591       -0.16282       -2.21111
O          2.97816       -0.04517       -1.07766
N          3.61924        1.20118       -1.13279
C          4.34474        1.33912       -0.07368
C          5.15832        2.58220        0.14657
C          6.63860        2.23214        0.07554
N          7.46150        3.40750        0.34436
H          1.62211       -1.13196       -2.16583
H          2.71254       -0.11237       -3.13350
H          1.36986        0.62831       -2.20030
H          4.40564        0.55328        0.70130
H          4.89988        2.97842        1.13468
H          4.89619        3.33258       -0.60761
H          6.88733        1.82893       -0.91284
H          6.87909        1.45463        0.80958
H          7.28363        4.11966       -0.36430
H          8.44632        3.15958        0.25125
