17
-1636.48
C          1.98346       -0.49989       -1.46509
O          2.17100        0.00708       -0.15146
C          3.03773        1.16128       -0.04401
C          2.45920        2.52764       -0.44072
O          2.92150        3.12796        0.79523
C          3.14987        1.80419        1.35479
C          4.49976        1.72673        2.03721
H          1.31599       -1.36356       -1.41295
H          2.94189       -0.81657       -1.88595
H          1.52794        0.26266       -2.10315
H          4.01395        0.96146       -0.50340
H          1.36939        2.57983       -0.52475
H          2.92208        2.99044       -1.31638
H          2.33199        1.53334        2.03473
H          5.30455        2.06818        1.37842
H          4.71979        0.69758        2.33733
H          4.51243        2.34960        2.93703
