16
-1614.9
C          0.97279       -0.07298       -0.00226
C          2.48853        0.04777       -0.12259
C          2.97173       -0.59224       -1.40170
C          3.80733       -1.63811       -1.46036
C          2.91290        1.51895       -0.13260
N          4.17984        1.75696        0.32467
O          2.21683        2.44256       -0.54062
H          0.61597        0.43381        0.90199
H          0.66672       -1.12381        0.05744
H          0.45605        0.38071       -0.85704
H          2.94373       -0.43479        0.75085
H          2.60489       -0.15887       -2.33311
H          4.19819       -2.11354       -0.56672
H          4.10995       -2.04972       -2.41925
H          4.85035        1.00906        0.43371
H          4.52322        2.70451        0.24475
