13
-1315.35
N          2.10791       -0.51187       -1.31573
C          2.47563       -0.09308        0.03210
C          2.99530        1.30131        0.01892
C          2.29838        2.49025       -0.08423
N          3.06044        3.64352       -0.04783
C          4.32837        3.31570        0.06627
S          4.67422        1.63844        0.14728
H          1.82446       -1.49006       -1.29504
H          2.93439       -0.46809       -1.91195
H          3.21442       -0.79046        0.44195
H          1.59132       -0.14846        0.67623
H          1.22263        2.57051       -0.18938
H          5.11396        4.05850        0.10852
