14
-1431.8
C          1.03036        0.01617       -0.14267
C          2.51275        0.01887        0.13003
N          3.11195        1.16738        0.22515
O          4.48391        1.07836        0.57317
C          5.19994        0.05051       -0.12192
C          4.50891       -1.26246        0.04904
C          3.18664       -1.29855        0.24070
H          0.63898       -1.00105       -0.22716
H          0.83332        0.54908       -1.07738
H          0.51343        0.52710        0.67496
H          6.19820        0.00074        0.32305
H          5.30589        0.31533       -1.17882
H          5.09848       -2.17120        0.03051
H          2.61439       -2.20519        0.37181
