18
-1723.31
N          2.20170       -0.89162        1.30358
C          2.16332       -0.32313       -0.04442
C          3.08678        0.89335       -0.18105
C          4.57918        0.60562        0.05704
O          4.78876        0.16680        1.39494
C          5.15698       -0.37900       -0.92782
C          5.73425       -1.55364       -0.63567
H          1.58871       -1.70842        1.33299
H          1.79272       -0.22305        1.96014
H          1.13473       -0.02205       -0.27180
H          2.43902       -1.09561       -0.76952
H          2.75895        1.65820        0.53594
H          2.95469        1.32065       -1.18325
H          5.13255        1.54551       -0.05237
H          4.06586       -0.47369        1.57438
H          5.10277       -0.08195       -1.97228
H          5.83329       -1.89814        0.38947
H          6.13029       -2.19141       -1.41788
