11
-1025.03
C          1.00156       -0.01355       -0.05595
C          2.49005       -0.04836        0.00063
C          3.27465       -0.74682       -1.07860
N          3.25826        0.71113       -0.97891
H          0.61677        0.74763        0.62851
H          0.59283       -0.98145        0.24797
H          0.62956        0.21346       -1.05994
H          2.87066       -0.07689        1.01479
H          2.74158       -1.16943       -1.92121
H          4.19907       -1.24220       -0.81106
H          4.12799        1.05930       -0.57134
