14
-1324.08
C          1.03339        0.01483       -0.06887
C          2.52310        0.00786       -0.01254
C          3.31218       -0.70634       -1.07678
C          3.32434        0.79517       -1.01354
N          4.53787        1.48153       -0.58563
H          0.63569        0.78827        0.59606
H          0.63918       -0.95218        0.25958
H          0.65850        0.21012       -1.07927
H          2.88226       -0.06783        1.00704
H          2.77963       -1.16945       -1.89969
H          4.20299       -1.24607       -0.77605
H          2.77974        1.30904       -1.80362
H          5.00815        0.97679        0.16445
H          4.31486        2.40135       -0.20677
