17
-1656.49
N          1.03546        0.03786        0.33958
C          2.47755        0.00614        0.06476
C          2.87547       -1.30602       -0.64483
C          2.70038       -1.01238       -2.10643
N          3.73448       -0.35067       -2.88785
C          2.69902        0.47567       -2.28728
C          2.87275        1.11109       -0.93756
H          0.79161        0.91517        0.79793
H          0.79318       -0.70606        0.99400
H          3.01010        0.12187        1.01446
H          2.26433       -2.15696       -0.32439
H          3.92209       -1.55009       -0.42790
H          1.94604       -1.59492       -2.61567
H          4.61459       -0.28773       -2.37628
H          1.94276        0.91831       -2.92071
H          3.91837        1.40252       -0.78621
H          2.25922        2.01269       -0.83033
