15
-1466.31
C          0.95137       -0.01656        0.07356
C          2.47484       -0.04114       -0.06061
N          2.83809       -0.80235       -1.26378
C          3.03156        1.39793       -0.09441
C          4.50051        1.43921        0.01252
C          5.69758        1.47870        0.10008
H          0.65237        0.50495        0.98926
H          0.54393       -1.03240        0.12534
H          0.48149        0.49462       -0.77425
H          2.88992       -0.56768        0.80757
H          2.47076       -0.34115       -2.09469
H          2.40972       -1.72615       -1.23169
H          2.60819        1.97051        0.74045
H          2.71380        1.90592       -1.01357
H          6.76027        1.50524        0.17224
