16
-1615.99
N          1.02917        0.00810        0.26476
C          2.47000        0.00000        0.00000
C          2.75362       -0.71007       -1.34595
C          4.22357       -0.88174       -1.64137
C          4.83431       -2.06526       -1.79074
C          2.95202        1.36117        0.00000
C          3.34930        2.48307        0.00000
H          0.86593        0.46540        1.16041
H          0.70338       -0.95046        0.36771
H          2.95855       -0.56128        0.80611
H          2.30706       -0.14349       -2.17400
H          2.26545       -1.69385       -1.34326
H          4.80987        0.02807       -1.75860
H          4.29780       -3.00404       -1.70055
H          5.89546       -2.11505       -2.01549
H          3.69752        3.48994       -0.00370
