17
-1574.89
C          0.91217        0.01342        0.00995
C          2.43892        0.00508        0.05968
C          2.92328       -0.82917        1.24706
O          2.91518       -0.62224       -1.13798
C          2.98700        1.45302        0.09522
N          4.44537        1.48140       -0.10274
H          0.55312        0.55303       -0.87410
H          0.48247        0.48257        0.90134
H          0.51734       -1.00592       -0.07152
H          2.62826       -0.37953        2.20105
H          4.01232       -0.94863        1.23832
H          2.50994       -1.84381        1.20180
H          3.80543       -0.23580       -1.28116
H          2.72671        1.94997        1.03642
H          2.54295        2.03004       -0.72406
H          4.90592        1.09384        0.72117
H          4.74937        2.45472       -0.15218
