16
-1565.16
N          0.87026       -0.09963       -0.73592
C          2.22601       -0.01518       -0.14814
C          3.31987       -0.69929       -0.94544
C          3.23326        0.79490       -0.93891
C          2.28688       -0.00631        1.39973
C          1.73123        1.12332        2.23297
O          1.01988       -0.10887        2.07870
H          0.30898        0.67455       -0.38199
H          0.40978       -0.92994       -0.35946
H          3.04284       -1.21814       -1.85645
H          4.13702       -1.16410       -0.40799
H          3.99263        1.34448       -0.39451
H          2.90038        1.28650       -1.84687
H          3.11305       -0.55900        1.83897
H          1.34285        1.99631        1.72516
H          2.18607        1.32182        3.19494
