19
-1846.64
C          2.88612       -1.01994       -0.35707
C          2.37228        0.27826        0.24755
C          3.41359        1.35568        0.19206
C          3.48364        2.28769       -0.99352
C          3.06645        2.82006        0.35227
C          1.66392        3.28946        0.57013
O          4.04001        3.61339        1.04725
H          2.11700       -1.79622       -0.30321
H          3.77197       -1.37805        0.17681
H          3.16090       -0.87991       -1.40718
H          2.09589        0.10440        1.29424
H          1.46013        0.57324       -0.28325
H          4.34565        1.02524        0.63781
H          2.72957        2.19978       -1.76786
H          4.46189        2.55564       -1.37458
H          0.94730        2.79760       -0.09434
H          1.59453        4.36668        0.38653
H          1.35873        3.10046        1.60420
H          4.95015        3.32514        0.86477
