19
-1778.2
C          3.40577       -0.64582       -2.23592
N          4.39443        0.10132       -1.46788
C          3.78703        1.29501       -0.86621
C          4.75711        2.04248        0.00836
N          5.98340        1.39275        0.49433
C          6.12179        2.46314       -0.48915
C          6.70149        3.76702       -0.06194
H          3.87281       -1.54241       -2.65491
H          3.01258       -0.05055       -3.06654
H          2.57394       -0.97277       -1.60377
H          5.14038        0.39337       -2.09726
H          2.93403        0.99942       -0.24362
H          3.41682        1.97202       -1.64492
H          4.25158        2.68728        0.71768
H          6.01815        0.46245        0.06059
H          6.44760        2.17480       -1.47974
H          6.44754        4.01693        0.97385
H          6.32868        4.57041       -0.70536
H          7.79257        3.74217       -0.14810
