9
-1050.2
N          0.84716        0.16113       -0.00763
C          2.00537        0.10914       -0.00347
C          3.42700        0.06483        0.00162
C          4.29061        1.14148        0.00379
C          5.64106        0.68551        0.00897
N          5.83208       -0.63095        0.01075
S          4.34613       -1.37389        0.00609
H          3.98546        2.17999        0.00183
H          6.52379        1.31355        0.01158
