18
-1712.22
C          0.58527        0.55613        0.35887
C          1.88796        0.16404       -0.32263
C          3.06685        1.01829        0.10548
C          3.67514        0.68215        1.45146
O          2.94971        1.33022        2.49123
C          3.97553        1.54990       -0.98769
N          3.05408        2.44097       -0.29527
H         -0.23135       -0.08092        0.00505
H          0.32210        1.59571        0.13945
H          0.65105        0.44554        1.44461
H          1.74217        0.22864       -1.40822
H          2.10665       -0.88931       -0.10831
H          4.71497        1.02066        1.51623
H          3.66610       -0.39646        1.63661
H          2.43774        2.04732        2.07570
H          3.73643        1.33955       -2.02358
H          5.03101        1.69132       -0.78744
H          3.56957        3.02719        0.36579
