19
-1839.39
C          3.00612       -0.43579        1.15436
O          2.73173        0.31851       -0.01853
C          3.02409        1.72560        0.05114
C          2.44759        2.31890       -1.24558
C          2.31115        2.39454        1.23819
C          4.53038        1.90149        0.01006
C          5.30258        2.59111        0.86198
H          2.90295       -1.49535        0.90398
H          2.27898       -0.20721        1.93809
H          4.02345       -0.26923        1.51825
H          2.87365        1.83121       -2.13097
H          2.63562        3.39552       -1.32141
H          1.36487        2.15343       -1.29955
H          2.71302        2.05757        2.20001
H          1.24446        2.14195        1.24049
H          2.40510        3.48555        1.20291
H          5.02368        1.39055       -0.81684
H          4.90037        3.12610        1.71520
H          6.37832        2.63164        0.71674
