13
-1370.22
N          1.31582       -0.51579       -0.35041
C          2.66273       -0.59802       -0.54032
O          3.16237       -1.53688       -1.14609
C          3.44694        0.54492        0.05279
C          4.93711        0.37918       -0.21454
C          5.68972        1.49833        0.36097
N          6.26824        2.39219        0.82262
H          0.86481        0.24718        0.13539
H          0.73868       -1.25587       -0.73041
H          3.25268        0.57679        1.13190
H          3.08120        1.48197       -0.38469
H          5.12470        0.32684       -1.29383
H          5.29609       -0.56431        0.21437
