13
-1463.99
O          2.63911       -1.09955        0.04431
C          2.11507        0.00644        0.00537
C          2.90072        1.24080        0.00242
C          2.40428        2.48736       -0.03868
C          3.50503        3.42187       -0.02596
C          4.66380        2.74697        0.02259
C          4.39526        1.26623        0.04604
H          1.02056        0.13372       -0.02967
H          1.36542        2.77746       -0.07553
H          3.39182        4.49568       -0.05208
H          5.64951        3.18790        0.04237
H          4.83505        0.77580       -0.82752
H          4.78211        0.81378        0.96402
