20
-1905.03
C          1.36253       -0.13731        0.15725
C          2.68970        0.15693       -0.56082
C          2.64459       -0.57988       -1.88242
C          3.44195       -1.60548       -2.21266
N          2.91749        1.60510       -0.77748
C          2.85439        2.36925        0.47286
C          4.22233        1.85076       -1.40853
H          1.38210        0.20320        1.19779
H          1.15888       -1.21510        0.18477
H          0.51586        0.34679       -0.34524
H          3.49914       -0.25167        0.06086
H          1.90575       -0.23262       -2.60297
H          4.19746       -1.98280       -1.52994
H          3.35568       -2.08369       -3.18253
H          1.84426        2.36281        0.89408
H          3.08882        3.42558        0.29466
H          3.55451        1.98734        1.22510
H          4.27570        1.41048       -2.41016
H          5.05085        1.45618       -0.80880
H          4.38512        2.92554       -1.55108
