12
-1321.05
O          2.17154       -0.81778       -0.62241
C          2.07791        0.21655        0.02317
C          3.19374        1.18517        0.06496
C          3.57222        1.95096       -1.17784
C          2.90131        2.66624       -0.03306
C          3.66299        3.57068        0.77967
N          4.27548        4.29446        1.44672
H          1.17765        0.46674        0.60840
H          4.02033        0.86197        0.69122
H          2.99803        1.77711       -2.08203
H          4.62825        2.12119       -1.36113
H          1.87124        2.96741       -0.19613
