17
-1635.08
C          1.64474       -0.44996       -0.84252
O          1.61089        0.90066       -0.40357
C          2.92021        1.43838       -0.13618
C          3.41097        2.47427       -1.11117
C          2.92875        2.89356        0.25281
C          3.88293        3.37792        1.28882
O          3.96407        4.79439        1.22396
H          0.62502       -0.76166       -1.08362
H          2.03053       -1.09379       -0.04642
H          2.26524       -0.54564       -1.73853
H          3.65635        0.79464        0.33723
H          2.78203        2.70639       -1.96304
H          4.47295        2.49959       -1.32401
H          1.96636        3.38701        0.33069
H          4.88944        2.96770        1.15365
H          3.53232        3.10135        2.28769
H          4.15160        5.02543        0.29874
