11
-1196.17
C          2.89156       -1.11007        0.38614
C          2.29767        0.05486        0.09875
C          3.00665        1.28704        0.07314
N          2.47835        2.46812       -0.20287
C          3.53639        3.32132       -0.10253
N          4.69675        2.75330        0.21889
O          4.36041        1.40654        0.33819
H          2.31643       -2.03081        0.39583
H          3.95018       -1.18656        0.61729
H          1.23687        0.09016       -0.12706
H          3.46182        4.38646       -0.26778
