21
-1927.87
C          2.09457       -1.29060        0.83633
C          3.17987       -0.45208        0.17719
C          3.00147        1.03354        0.49087
N          4.05991        1.80699       -0.16002
C          3.92192        3.23917        0.15104
C          5.04004        4.07266       -0.50379
N          5.18302        3.79368       -1.93856
H          2.24616       -2.35084        0.61262
H          1.10337       -1.00425        0.47126
H          2.10959       -1.16697        1.92367
H          3.15006       -0.61737       -0.90695
H          4.16032       -0.79527        0.53062
H          3.04382        1.17990        1.57661
H          2.01751        1.36778        0.14121
H          3.96752        1.70853       -1.17279
H          3.96034        3.39739        1.23504
H          2.95056        3.60211       -0.20905
H          5.99478        3.86053       -0.00922
H          4.82582        5.13741       -0.36349
H          5.51616        2.83315       -2.03062
H          5.93394        4.37625       -2.30984
