16
-1513.35
N          0.89130        0.48923        0.29742
C          2.12182        0.53416       -0.48357
C          3.13623        1.32881        0.26545
O          3.93754        2.20578       -0.54675
C          3.02968        2.83005        0.37029
C          3.67131        3.55856        1.49886
O          3.66563        4.95112        1.22242
H          0.20902       -0.08627       -0.19715
H          0.48298        1.42364        0.33302
H          1.91816        0.96265       -1.47015
H          2.49533       -0.48386       -0.63327
H          3.61828        0.77504        1.05928
H          2.14661        3.32003       -0.01575
H          4.70485        3.24030        1.66482
H          3.10967        3.39178        2.42154
H          4.18073        5.07289        0.40601
