16
-1616.
C          1.21474       -0.03757       -0.91814
C          2.01804       -0.52065        0.25824
C          1.96348       -1.80084        0.65518
N          2.82831        0.35597        0.95175
C          3.02212        1.70435        0.69361
C          3.98896        2.33656        1.66220
O          2.51361        2.35429       -0.21281
H          1.87091        0.34419       -1.70690
H          0.51512        0.74811       -0.61503
H          0.61847       -0.84388       -1.36019
H          1.33812       -2.52174        0.13626
H          2.53169       -2.17578        1.49968
H          3.34321       -0.02970        1.73460
H          3.73596        2.05958        2.68953
H          3.93344        3.42557        1.57637
H          5.00569        2.00925        1.42917
