17
-1662.72
C          1.13840       -0.25595       -0.04297
N          2.54183        0.11436       -0.11644
C          2.87976        1.36499       -0.05581
C          1.89024        2.50508        0.08516
N          4.22691        1.63614       -0.09249
C          4.93152        2.80171        0.02429
C          6.26090        2.92906       -0.02381
H          1.06310       -1.34571        0.03096
H          0.60069        0.04628       -0.94686
H          0.64956        0.16016        0.84387
H          0.89090        2.23541       -0.26043
H          2.21147        3.36467       -0.50966
H          1.83584        2.79808        1.13766
H          4.78572        0.79440       -0.19166
H          4.32223        3.68907        0.17352
H          6.91293        2.07460       -0.16837
H          6.72624        3.90392        0.08025
