15
-1502.54
O         -0.25396       -0.49882       -0.29849
C          1.14153       -0.32312       -0.08273
C          1.60490        1.06576       -0.44689
C          0.79446        2.02991       -0.91933
O          2.98154        1.21383       -0.32304
C          3.53175        2.40550        0.07585
C          4.85044        2.60996        0.06328
H         -0.44808       -1.42874       -0.09525
H          1.67595       -1.06000       -0.69121
H          1.35111       -0.51797        0.97378
H         -0.27180        1.85599       -1.02961
H          1.16587        2.99920       -1.23021
H          2.82960        3.15098        0.42131
H          5.53056        1.83535       -0.27533
H          5.27114        3.55462        0.38894
