16
-1596.43
C         -1.19592       -0.71816       -0.55698
N         -1.26406        0.76965       -0.47120
C         -0.04201        1.10694        0.31032
C          1.20658        0.70845       -0.49821
O          1.21849       -0.74406       -0.42485
C          0.01678       -1.06345        0.32474
C         -0.03278        0.02713        1.37259
H         -1.05653       -1.02874       -1.59711
H         -2.11899       -1.15064       -0.15723
H         -2.08555        1.02509        0.07702
H         -0.03984        2.14066        0.66157
H          2.12806        1.07480       -0.03424
H          1.17191        1.02527       -1.54508
H          0.04454       -2.09160        0.69012
H         -0.92919        0.00211        2.00057
H          0.86575        0.06381        1.99768
