15
-1416.87
C          1.09604        0.10834        0.17324
C          2.56461        0.02351       -0.08583
C          3.20182       -1.10954       -0.42591
S          3.49665        1.50216        0.06678
C          4.11601        1.37392        1.72605
O          4.64118        1.45477       -0.82508
O          2.59347        2.63740        0.03647
H          0.61487        0.76979       -0.55425
H          0.90550        0.49699        1.17886
H          0.61332       -0.87207        0.10032
H          2.66469       -2.04607       -0.54011
H          4.27069       -1.13252       -0.62519
H          3.27437        1.31637        2.41897
H          4.70680        2.26837        1.93613
H          4.74795        0.48762        1.80731
