13
-1294.47
O          1.05356        0.00587        0.33381
S          2.49908       -0.00038        0.21089
O          3.35807       -0.00572        1.38064
C          2.97725       -1.35274       -0.86424
C          3.44454       -0.67108       -2.11339
C          3.45047        0.66810       -2.11161
C          2.98922        1.35056       -0.86065
H          2.10801       -1.98682       -1.04878
H          3.78458       -1.91780       -0.39171
H          3.75907       -1.25389       -2.97122
H          3.77016        1.25038       -2.96789
H          3.80152        1.90719       -0.38663
H          2.12562        1.99281       -1.04350
