13
-1373.51
C          1.00000        0.00000        0.00000
C          2.19016        0.00000        0.00000
C          3.63416        0.00000        0.00000
C          4.23629       -1.19089       -0.78224
N          4.66128       -0.66305       -2.12109
C          4.55653        0.62145       -1.97311
N          4.13517        1.11555       -0.77795
H         -0.06602       -0.00411       -0.00645
H          4.02624        0.02991        1.02156
H          3.53111       -2.01902       -0.91305
H          5.12935       -1.57348       -0.27358
H          4.76458        1.36069       -2.76224
H          3.56517        1.95195       -0.79781
