15
-1521.24
C          1.05955        0.04138       -0.03832
N          2.44801        0.05334        0.35277
C          3.17420        1.22105        0.43146
N          4.41057        1.22239        0.01782
C          4.69846       -0.12300       -0.45034
C          4.62450       -1.30751        0.47059
C          3.39183       -0.89460       -0.27279
H          0.65186       -0.97222        0.02966
H          0.93900        0.39657       -1.06657
H          0.46965        0.68422        0.62365
H          2.63812        2.10913        0.80198
H          5.32396       -0.22256       -1.32731
H          5.12025       -2.21825        0.15864
H          4.67539       -1.12340        1.53645
H          3.02939       -1.47515       -1.11048
