17
-1719.94
C          2.46998       -0.42825       -1.57972
C          2.50709        0.13876       -0.16951
C          3.46904        1.31921       -0.01619
O          3.49524        1.70156        1.37708
C          3.14176        3.09159        1.48734
C          2.87844        3.55158        0.10562
C          3.06104        2.54820       -0.74947
H          1.81851       -1.30711       -1.61421
H          3.46910       -0.73486       -1.90508
H          2.08209        0.30217       -2.29601
H          2.80388       -0.65469        0.52909
H          1.49465        0.43290        0.13592
H          4.48530        1.02367       -0.29838
H          3.97536        3.63207        1.94485
H          2.25587        3.18017        2.12249
H          2.58773        4.55738       -0.15559
H          2.94892        2.61372       -1.82097
