16
-1655.49
N          0.92476        0.08832       -0.13979
C          2.08254        0.02666       -0.19522
C          3.54589       -0.05225       -0.26563
C          4.18901        1.22222        0.27786
C          5.68655        1.15955        0.19353
C          6.52787        1.92064        1.18436
C          6.48071        0.41834        1.23703
H          3.85809       -0.21503       -1.30389
H          3.89545       -0.91965        0.30664
H          3.86774        1.38743        1.31459
H          3.84312        2.09082       -0.29677
H          6.03977        1.12603       -0.83221
H          6.03533        2.47094        1.97846
H          7.43901        2.38735        0.82624
H          7.36092       -0.12698        0.91422
H          5.95832       -0.04042        2.06910
