12
-1270.23
C          1.00000        0.00000        0.00000
C          2.19016        0.00000        0.00000
C          3.63416        0.00000        0.00000
C          4.22142       -1.19968       -0.70521
C          4.51691       -0.57216       -2.01057
N          4.50043        0.71513       -2.03176
O          4.13572        1.13786       -0.72618
H         -0.06577        0.01331       -0.00573
H          4.00885        0.06000        1.02734
H          3.55264       -2.05750       -0.80541
H          5.16992       -1.52226       -0.26503
H          4.78751       -1.18615       -2.88081
