17
-1586.69
N          1.27475       -0.10468        0.77809
C          2.22644       -0.16293       -0.33219
C          3.16277        1.01818       -0.20048
C          4.23474        0.87962        0.86031
O          3.77270        1.47444        2.07077
C          3.43299        1.90748       -1.39944
N          2.53117        2.36301       -0.35651
H          0.54532       -0.79836        0.61775
H          0.80368        0.80290        0.70497
H          1.68012       -0.13279       -1.28250
H          2.78226       -1.10603       -0.30153
H          5.15901        1.38779        0.56780
H          4.48050       -0.16885        1.05703
H          2.87715        1.10222        2.20409
H          2.97233        1.66172       -2.34851
H          4.37866        2.43065       -1.47749
H          2.98664        2.99891        0.30713
