19
-1804.98
C          2.96505       -1.16736       -0.30723
C          2.39059       -0.02069        0.51497
C          3.06866        1.32432        0.21282
C          2.35568        2.45794        0.94783
N          4.45938        1.28200        0.63652
C          5.42643        2.06953        0.10781
N          6.61284        2.19997        0.58071
H          2.41886       -2.09200       -0.09519
H          4.01944       -1.33992       -0.07134
H          2.87982       -0.96198       -1.37888
H          2.48423       -0.26533        1.58063
H          1.31793        0.05529        0.29783
H          3.01355        1.51343       -0.86651
H          2.39001        2.31326        2.03341
H          1.30543        2.51945        0.64455
H          2.82541        3.42297        0.72853
H          4.63855        0.86473        1.54161
H          5.12573        2.62051       -0.79959
H          6.71982        1.61024        1.40722
