17
-1628.14
C          1.35053       -0.15092       -0.47333
N          2.79757       -0.09584       -0.29646
N          3.31530        1.14978       -0.16257
C          4.60552        1.16579       -0.10566
C          5.26426        2.47949        0.04057
C          5.31346        3.14554        1.39383
C          6.57005        2.59270        0.78840
H          1.03354       -1.18872       -0.61201
H          1.04604        0.41542       -1.35910
H          0.83325        0.25448        0.40187
H          3.05059       -0.69070        0.49641
H          5.24102        0.26457       -0.17032
H          5.13338        3.13207       -0.81737
H          4.87573        2.62434        2.23787
H          5.18902        4.22181        1.42750
H          7.30583        3.29663        0.41590
H          6.99659        1.70251        1.23633
