12
-1213.03
O          1.09737       -0.24194       -0.51449
C          2.07108        0.11624        0.15187
C          3.00601        1.30957       -0.16140
C          2.42226        2.72464       -0.07256
C          3.62030        3.02111        0.82123
O          3.95537        1.61505        0.90565
H          2.33402       -0.44183        1.06596
H          3.55688        1.13548       -1.09530
H          1.45414        2.79710        0.43128
H          2.39335        3.27787       -1.01436
H          4.42726        3.59298        0.35380
H          3.38025        3.44259        1.80074
