17
-1686.67
C          0.95774       -0.00203        0.11089
C          2.47129       -0.01193        0.01873
C          3.12125        1.16413        0.77419
C          4.44713        0.60505        1.29544
N          4.10498       -0.77232        1.55708
C          3.11579       -1.19199        0.72027
N          2.84064       -2.42584        0.49054
H          0.52703       -0.82659       -0.46691
H          0.55016        0.93471       -0.28298
H          0.61755       -0.11780        1.14599
H          2.79584       -0.01780       -1.02797
H          2.49589        1.46926        1.62331
H          3.26528        2.04064        0.13512
H          5.22713        0.66360        0.52850
H          4.78664        1.12044        2.19815
H          4.83257       -1.45028        1.75186
H          2.08731       -2.50307       -0.19848
