17
-1569.66
C          2.23806       -1.00156        1.09473
C          2.19599       -0.09195       -0.11966
C          2.78101        1.27109        0.20507
N          2.06051        2.16547        0.81095
N          4.07567        1.57660       -0.13710
O          4.95829        0.50063        0.00411
C          5.69869        0.42336       -1.21172
H          1.82174       -1.98281        0.84861
H          1.65551       -0.58030        1.92131
H          3.26254       -1.14316        1.45006
H          1.16040        0.03988       -0.45166
H          2.74890       -0.54356       -0.95048
H          1.12395        1.79293        0.99992
H          4.38523        2.41368        0.35341
H          6.38720       -0.42261       -1.13800
H          6.28198        1.33722       -1.36537
H          5.02841        0.25219       -2.06063
