20
-1913.07
C          1.16432        0.21802        0.12011
C          2.67212       -0.07048        0.00109
C          3.09591       -0.96614        1.17945
C          2.92681       -0.84381       -1.30785
C          3.41450        1.25564       -0.06723
C          3.75406        2.07109        1.15865
N          4.79141        1.36808        0.40841
H          0.80968        0.82758       -0.71916
H          0.94050        0.76989        1.04030
H          0.57951       -0.70860        0.13241
H          2.88905       -0.49300        2.14495
H          4.16561       -1.20027        1.14454
H          2.55244       -1.91831        1.16423
H          2.60677       -0.26372       -2.18120
H          2.38426       -1.79579       -1.32221
H          3.99355       -1.06149       -1.43474
H          3.17642        1.81124       -0.97032
H          3.53669        1.68236        2.14448
H          3.74644        3.15159        1.07970
H          5.32555        2.01528       -0.17441
