14
-1492.93
C          0.97169        0.02706       -0.14521
C          2.47449       -0.01830        0.07429
N          2.87252       -1.17592        0.81736
C          3.53396       -0.86654        1.97803
O          4.01392       -1.64329        2.77848
C          3.57029        0.59727        2.07604
C          2.96593        1.06629        0.97736
H          0.64401       -0.83182       -0.74114
H          0.68139        0.94032       -0.67537
H          0.42140       -0.00441        0.80227
H          3.01221       -0.01204       -0.87943
H          2.78377       -2.13497        0.51167
H          4.02191        1.13226        2.89105
H          2.84842        2.11743        0.75521
