14
-1398.16
C          1.00034       -0.05416        0.00380
C          2.52000        0.00000        0.00000
C          3.00202        1.36117        0.00000
C          3.39930        2.48307        0.00000
C          3.88132        3.84424        0.00000
O          2.84467        4.71699       -0.42465
H          0.65699       -1.09299        0.00344
H          0.58489        0.44238       -0.87960
H          0.58945        0.44021        0.89055
H          2.89508       -0.53266       -0.88111
H          2.89958       -0.53430        0.87818
H          4.72629        3.95713       -0.68640
H          4.20451        4.15117        0.99918
H          3.23730        5.59931       -0.50292
