15
-1442.47
C          1.73695        0.18089        1.29413
O          1.70358        1.49156        0.72098
C          2.85267        1.92061        0.13234
C          2.68906        3.32297       -0.34123
C          1.50670        3.92418       -0.53053
N          3.90382        1.16278        0.06020
N          4.98721        1.67612       -0.57415
H          0.76718       -0.00501        1.76436
H          2.51046        0.11659        2.06599
H          1.89401       -0.57279        0.51640
H          3.60966        3.85844       -0.54373
H          0.56535        3.41512       -0.34952
H          1.46048        4.95070       -0.87839
H          5.76508        1.01621       -0.49651
H          4.80956        1.76164       -1.57850
