18
-1632.24
C          1.17707       -0.53822        0.16298
C          2.65176       -0.79181       -0.10699
N          3.38409        0.47375       -0.08645
C          4.81395        0.25148       -0.35497
C          5.60109        1.57601       -0.36240
N          5.33977        2.39332        0.83079
H          0.62342       -1.48295        0.14865
H          0.74247        0.11806       -0.59891
H          1.02580       -0.07412        1.14328
H          2.75441       -1.27445       -1.08583
H          3.04463       -1.47663        0.65358
H          3.31309        0.88313        0.84700
H          4.94670       -0.23740       -1.32649
H          5.23482       -0.40703        0.41556
H          5.33201        2.15911       -1.25054
H          6.67289        1.35951       -0.42247
H          4.36507        2.69370        0.78601
H          5.88983        3.24927        0.76449
