12
-1299.39
C          1.00000        0.00000        0.00000
C          2.44400        0.00000        0.00000
C          3.63416        0.00000        0.00000
C          5.07816        0.00000        0.00000
O          5.54626       -0.72048       -1.14562
C          5.56018        1.36117        0.00000
N          5.94439        2.44616        0.00000
H          0.60602        1.02089        0.01165
H          0.60593       -0.52052        0.87825
H          0.60598       -0.50030       -0.88995
H          5.45547       -0.53063        0.88009
H          5.16818       -0.27714       -1.92531
