11
-1211.43
N          1.01801       -0.28257       -0.02563
C          2.36833       -0.01864       -0.03192
C          3.05352        1.13799        0.00000
C          2.33900        2.43273        0.00955
O          2.90302        3.51319        0.13399
C          4.45952        1.13799        0.00000
N          5.61053        1.13799        0.00000
H          0.77180       -1.22550        0.27858
H          0.40755        0.42153        0.38225
H          2.93398       -0.95298       -0.08186
H          1.24447        2.38270       -0.10136
