17
-1701.24
C          1.00000        0.00000        0.00000
C          2.44400        0.00000        0.00000
C          3.63416        0.00000        0.00000
C          5.07816        0.00000        0.00000
C          5.62230       -0.65837        1.26636
C          5.62261       -0.70342       -1.24285
O          5.54766        1.34830       -0.01635
H          0.60599        1.02087        0.01166
H          0.60601       -0.52055        0.87827
H          0.60602       -0.50034       -0.88993
H          5.27816       -0.12942        2.16337
H          6.71753       -0.62198        1.28694
H          5.30822       -1.70471        1.34897
H          5.27624       -0.20941       -2.15903
H          5.31104       -1.75309       -1.28648
H          6.71791       -0.66484       -1.26599
H          5.06061        1.80650       -0.72231
