13
-1315.2
C          1.94270       -1.10278        0.36032
C          1.56102        0.17836        0.27090
N          2.36883        1.23418       -0.12339
C          1.87631        2.54798       -0.12373
O          2.47804        3.59603       -0.33550
N          3.69406        0.92282       -0.35970
C          4.40532        1.70714       -1.09599
H          1.24380       -1.86848        0.67770
H          2.95417       -1.41799        0.12524
H          0.53420        0.43290        0.51996
H          0.79981        2.57643        0.11723
H          5.46910        1.46497       -1.24867
H          4.03849        2.59261       -1.63671
