19
-1786.91
C          0.98563       -0.08009        0.10988
C          2.48988        0.06982        0.01128
C          3.14391        1.13964        0.90776
C          4.20032        0.05628        1.23190
C          5.49144        0.04256        0.39926
N          6.36584        1.15636        0.76253
N          3.20748       -0.96162        0.79355
H          0.64735       -0.97297       -0.42676
H          0.48669        0.78520       -0.33825
H          0.64713       -0.16010        1.14868
H          2.82532        0.12506       -1.03286
H          2.54514        1.44043        1.77607
H          3.49646        2.03777        0.39394
H          4.42886       -0.01819        2.30309
H          5.27778        0.09267       -0.67454
H          6.03095       -0.89388        0.58227
H          5.92469        2.03821        0.50362
H          7.22513        1.10071        0.21679
H          3.58204       -1.73642        0.24863
