17
-1678.31
N          2.63558       -1.02143       -0.41198
C          2.33357        0.10502        0.12880
N          2.96910        1.28441       -0.08881
C          2.59106        2.55179        0.50950
C          3.36472        3.58628       -0.30243
C          4.62226        2.83304       -0.70391
C          4.10166        1.42732       -0.99200
H          1.99341       -1.74397       -0.07054
H          1.49215        0.18130        0.84053
H          2.89905        2.57195        1.56073
H          1.51234        2.73060        0.45208
H          2.79467        3.86541       -1.19696
H          3.57498        4.49509        0.26793
H          5.12934        3.27675       -1.56477
H          5.32689        2.80824        0.13583
H          3.76235        1.34502       -2.03082
H          4.87781        0.67694       -0.80878
