16
-1677.24
C          0.96165        0.03349       -0.00794
N          2.40640        0.01623       -0.00066
C          3.21730        1.11718        0.00408
C          4.52241        0.67722        0.01059
C          4.50289       -0.74591        0.00978
C          5.68484       -1.64330        0.01527
C          3.17249       -1.11932        0.00260
H          0.60778        1.06764        0.00197
H          0.60690       -0.49026        0.88261
H          0.61667       -0.47006       -0.91404
H          2.81100        2.11921        0.00246
H          5.39901        1.31228        0.01541
H          5.38563       -2.69631        0.02325
H          6.30056       -1.45844        0.90156
H          6.29885       -1.47117       -0.87471
H          2.71496       -2.09996       -0.00042
