17
-1720.57
C          1.01975        0.04551        0.07964
C          2.35945       -0.00488        0.02349
C          3.12284       -1.30090       -0.00292
C          4.11330       -1.29222       -1.16347
C          4.93353       -0.00695       -1.15915
O          4.07761        1.13541       -1.20120
C          3.22916        1.22029       -0.05474
H          0.48714        0.99236        0.07715
H          0.41812       -0.85759        0.11800
H          2.45511       -2.16506       -0.09507
H          3.66523       -1.41265        0.94404
H          4.77254       -2.16495       -1.10754
H          3.55509       -1.35841       -2.10623
H          5.58177        0.05206       -0.27679
H          5.57627        0.02579       -2.04472
H          3.84073        1.32329        0.84934
H          2.63152        2.13212       -0.15528
