17
-1653.02
C          1.51924        0.08031        2.10022
O          2.88268        0.45688        1.94432
C          3.10541        1.42403        0.90871
C          2.54567        2.78706        1.31378
C          4.61629        1.53087        0.70554
C          5.12359        0.30376       -0.00050
O          5.73615        0.34744       -1.06563
H          1.46707       -0.69790        2.86679
H          1.12023       -0.32372        1.16534
H          0.91312        0.92446        2.43914
H          2.62794        1.08085       -0.01795
H          2.87368        3.05986        2.32274
H          1.45134        2.77434        1.32626
H          2.85561        3.57045        0.61521
H          5.14480        1.60195        1.66233
H          4.87294        2.40233        0.09351
H          4.94936       -0.65699        0.51287
