16
-1594.37
C          1.90818       -0.80765        1.53303
O          3.14610       -0.15027        1.29071
C          3.01648        1.09557        0.58723
C          2.43044        2.16986        1.50558
C          4.42336        1.47230        0.10540
C          4.39566        2.59347       -0.84004
N          4.36401        3.48198       -1.58380
H          2.12516       -1.80788        1.91846
H          1.33099       -0.90975        0.60909
H          1.32663       -0.27304        2.28867
H          2.36135        0.95012       -0.28176
H          3.01209        2.25136        2.43017
H          1.40572        1.92027        1.79775
H          2.40176        3.14941        1.01934
H          4.88576        0.60259       -0.37813
H          5.06518        1.70899        0.96267
