14
-1455.97
C          0.88487       -0.20199       -0.11697
C          2.37544       -0.02866        0.12917
C          2.76813        1.41945        0.11538
C          3.29775        2.05904        1.16737
C          3.65692        3.43144        1.09571
C          3.96075        4.59164        1.03781
H          0.62277       -1.26487       -0.11569
H          0.59084        0.21685       -1.08541
H          0.29510        0.29308        0.66198
H          2.93719       -0.55284       -0.65224
H          2.64044       -0.49897        1.08331
H          2.61299        1.95668       -0.81900
H          3.46594        1.54213        2.10822
H          4.23141        5.61973        0.98721
