14
-1427.89
C          0.95434       -0.01250        0.04854
C          2.46926        0.01832        0.02936
C          3.15070        1.08972        0.93385
C          4.17432       -0.01285        1.29434
O          5.30267       -0.01265        1.73382
C          3.19502       -1.11270        0.81981
H          0.57941       -0.85779       -0.53671
H          0.54532        0.90501       -0.38722
H          0.56496       -0.10619        1.06778
H          2.83133        0.08048       -1.00697
H          2.56691        1.42435        1.79656
H          3.56791        1.94877        0.40468
H          3.64520       -1.89610        0.20682
H          2.62720       -1.55710        1.64336
