14
-1449.08
C          1.10705       -0.08154        0.57218
C          2.52000        0.00000        0.00000
N          2.55534       -0.50457       -1.35790
C          2.63173       -1.84200       -1.63306
O          2.70434       -2.73773       -0.80560
C          3.00202        1.36117        0.00000
C          3.39930        2.48307        0.00000
H          1.07576        0.29830        1.59967
H          0.74570       -1.11569        0.58432
H          0.39862        0.50678       -0.02335
H          3.17760       -0.62767        0.61329
H          2.43595        0.14854       -2.12027
H          2.62151       -2.03895       -2.71805
H          3.75857        3.48657        0.00465
