15
-1524.08
C          0.95547       -0.03215        0.11773
C          2.46747        0.04688       -0.03296
C          3.16754        1.10457        0.85822
C          4.16141       -0.01268        1.21106
N          3.14788       -1.00122        0.78915
C          2.88431        0.03470       -1.43312
N          3.23276        0.01528       -2.53962
H          0.65300       -0.06221        1.17120
H          0.55031       -0.92882       -0.36608
H          0.47106        0.84106       -0.33442
H          2.57380        1.45036        1.71348
H          3.59582        1.97716        0.35612
H          5.06795       -0.01893        0.59466
H          4.44928       -0.07310        2.26400
H          3.52229       -1.78981        0.26034
