17
-1748.32
C          1.83767       -0.61218       -1.16241
C          2.69652       -0.23869        0.03574
C          3.00376        1.23062        0.05191
C          4.24713        1.73572       -0.00886
C          4.56825        3.20168        0.01116
C          5.27763        3.57317       -1.21973
C          5.85919        3.88118       -2.22546
H          1.62092       -1.68516       -1.15223
H          2.34743       -0.37834       -2.10322
H          0.88314       -0.07509       -1.14906
H          3.61745       -0.83310        0.01816
H          2.16616       -0.49733        0.95917
H          2.15159        1.90398        0.12046
H          5.09875        1.05982       -0.07119
H          5.19561        3.41570        0.88373
H          3.65887        3.80501        0.11270
H          6.37342        4.15074       -3.11911
