15
-1546.45
O          0.87099       -0.03559        0.16505
C          2.30533       -0.01211        0.02064
C          3.04422        1.05805        0.87468
C          4.10619       -0.00256        1.21659
C          3.07618       -1.08403        0.84365
C          2.61583        0.01302       -1.39673
C          2.86939        0.03374       -2.57058
H          0.70958       -0.05156        1.12217
H          2.47247        1.40415        1.74419
H          3.42424        1.93617        0.34339
H          4.97962        0.02006        0.55496
H          4.44849       -0.01249        2.25452
H          3.48200       -1.93467        0.28732
H          2.51538       -1.47208        1.70251
H          3.08337        0.05195       -3.61411
