18
-1761.44
C          1.00795       -0.21960        0.02991
C          2.52247       -0.03348        0.02972
C          3.02739        1.43282        0.00000
C          2.51696        2.18031       -1.24086
N          2.57733        2.16313        1.18735
C          4.47139        1.43282        0.00000
C          5.66155        1.43282        0.00000
H          0.76785       -1.28698        0.06143
H          0.55079        0.19173       -0.87468
H          0.54142        0.24760        0.90216
H          2.92809       -0.57426       -0.83583
H          2.92631       -0.54484        0.91421
H          2.79624        1.65342       -2.16126
H          2.94305        3.18979       -1.30615
H          1.42692        2.28983       -1.23762
H          2.87860        1.66148        2.02099
H          1.56161        2.19235        1.21622
H          6.72679        1.44216        0.00374
