18
-1649.18
C          3.21632       -1.00991        0.24788
O          2.57336       -0.03606        1.05963
C          2.88527        1.29894        0.63573
C          1.94781        2.30209        1.37170
N          1.86741        2.12167        2.83394
O          4.27556        1.60924        0.73508
C          4.78232        1.63006        2.06053
H          2.89167       -1.99963        0.58034
H          4.30287       -0.95102        0.35570
H          2.93357       -0.88821       -0.80254
H          2.63753        1.37817       -0.43079
H          0.93250        2.15562        0.98339
H          2.25460        3.33076        1.15687
H          1.75067        1.12008        3.00786
H          1.02727        2.57875        3.18266
H          5.87486        1.62860        2.00128
H          4.47412        0.74696        2.62813
H          4.48375        2.54806        2.57281
