15
-1439.22
N          1.17117        0.11126        0.15519
C          2.47835        0.05190       -0.20602
S          3.18376       -1.43424       -0.45981
N          3.11054        1.24848       -0.31519
C          2.73650        2.58910        0.10199
C          4.07395        3.04513       -0.49280
C          4.51924        1.58016       -0.47994
H          0.65130        0.97127        0.06684
H          0.64603       -0.75407        0.16564
H          2.64780        2.68612        1.18754
H          1.85009        2.98707       -0.39668
H          3.98829        3.47487       -1.49791
H          4.66108        3.72158        0.13449
H          4.96215        1.22488       -1.41371
H          5.13016        1.28497        0.37807
