15
-1430.71
C         -1.66673        0.95686        0.41804
C         -1.38962       -0.40755       -0.14129
C         -0.41451       -1.36461        0.38683
C          0.79804       -0.71508       -0.17993
O          1.70679       -0.21352        0.71854
C          0.96469        0.84620        0.01638
C         -0.50363        0.74925       -0.53713
H         -2.53649        1.48823        0.04683
H         -1.46227        1.12585        1.46887
H         -2.05373       -0.82005       -0.88729
H         -0.41090       -1.39646        1.48125
H         -0.55646       -2.37405       -0.00854
H          1.14990       -1.16385       -1.10217
H          0.92394        1.59934        0.79379
H         -0.64097        1.16003       -1.53732
