16
-1550.87
C          2.14738       -0.44545        1.42937
C          2.22244        0.14396        0.02837
C          2.80277        1.53733        0.03634
C          2.01273        2.61785       -0.07925
O          4.17599        1.54617        0.14181
C          4.84162        2.80342        0.10961
H          1.73646       -1.45997        1.39092
H          1.49890        0.15620        2.07644
H          3.13764       -0.49964        1.89484
H          1.21926        0.14336       -0.41363
H          2.83862       -0.50174       -0.60869
H          0.93566        2.50988       -0.16396
H          2.39098        3.63219       -0.08564
H          5.91706        2.61734        0.18214
H          4.54771        3.42329        0.96253
H          4.65398        3.32303       -0.83634
