12
-1314.58
C          2.78522       -1.09146        0.41120
C          2.19639        0.08278        0.15338
C          2.93846        1.29433        0.11845
C          2.48872        2.58059       -0.13053
C          3.62300        3.40165       -0.04610
N          4.71931        2.70106        0.23527
O          4.29749        1.38824        0.33858
H          2.20298       -2.00646        0.43385
H          3.85089       -1.17814        0.60525
H          1.12838        0.12137       -0.03464
H          1.47280        2.87619       -0.34400
H          3.70318        4.47117       -0.17538
