18
-1802.28
C          2.84378       -0.88339       -1.08349
C          2.47702       -0.00342        0.10696
C          3.02739        1.43282        0.00000
C          2.47593        2.28078        1.16429
C          2.83718        3.75819        1.06094
C          4.47139        1.43282        0.00000
N          5.62240        1.43282        0.00000
H          2.35791       -1.85991       -0.99081
H          3.92255       -1.05419       -1.13930
H          2.51524       -0.42910       -2.02331
H          2.83621       -0.48341        1.02683
H          1.38215        0.03317        0.17596
H          2.66571        1.86775       -0.94076
H          2.83842        1.89296        2.12455
H          1.38190        2.20066        1.18253
H          3.91637        3.91572        1.15066
H          2.35246        4.31947        1.86625
H          2.50388        4.17876        0.10672
