14
-1485.01
C          0.97719       -0.01403       -0.00815
C          2.45812        0.06911       -0.00027
C          3.30321        1.16385        0.00464
C          4.61767        0.66215        0.01125
O          5.76653        1.34824        0.01757
C          4.56776       -0.70494        0.01031
N          3.24463       -1.06179        0.00317
H          0.52807        0.98423        0.00055
H          0.61758       -0.55537        0.87264
H          0.62639       -0.53613       -0.90399
H          2.99163        2.19965        0.00348
H          5.57689        2.30199        0.01712
H          5.35043       -1.45033        0.01402
H          2.90028       -2.01326        0.00083
