13
-1245.18
C          2.23327       -0.84231       -0.24747
O          3.45498       -0.11875       -0.21803
C          3.24062        1.25819        0.07382
C          4.57660        1.92944        0.07582
C          4.90180        2.98760       -0.67825
H          2.45738       -1.88840       -0.47419
H          1.57341       -0.45017       -1.02768
H          1.73561       -0.79488        0.72599
H          2.78291        1.35835        1.06457
H          2.57195        1.69813       -0.67563
H          5.32278        1.50396        0.74160
H          4.19334        3.43983       -1.36534
H          5.89751        3.41687       -0.62850
