14
-1375.66
C          2.39900       -0.40905       -1.71019
N          2.57796        0.35253       -0.49082
O          1.74477       -0.14875        0.53660
C          3.84569        0.78014       -0.13366
O          4.77595        0.87456       -0.93255
C          4.01137        1.19573        1.29009
C          5.17152        1.70765        1.72411
H          2.95248        0.05772       -2.53006
H          1.33449       -0.44464       -1.95831
H          2.77719       -1.42436       -1.55624
H          1.04306        0.52873        0.55656
H          3.17918        1.07461        1.96985
H          6.02089        1.83530        1.05800
H          5.29407        2.00883        2.75868
