15
-1554.33
C          0.88152        0.11714       -0.00607
C          2.38510        0.02273       -0.00723
C          2.92839       -1.38074        0.00555
O          2.58667       -2.01873       -1.21716
C          3.13902        1.13799        0.00000
C          4.54502        1.13799        0.00000
C          5.73518        1.13799        0.00000
H          0.53161        1.15456        0.02474
H          0.46954       -0.39592        0.86929
H          0.46644       -0.34430       -0.90797
H          2.48668       -1.95226        0.82868
H          4.01439       -1.43214        0.12346
H          2.96575       -1.46889       -1.92447
H          2.65717        2.11278       -0.00032
H          6.80047        1.13868        0.00125
