16
-1610.97
C          0.99343        0.03473        0.05042
C          2.50880       -0.02845        0.01437
N          3.14680        0.99864        0.88789
C          4.19252       -0.00124        1.22468
C          3.18898       -1.12395        0.87939
C          3.71930       -2.26960        0.16938
C          4.15498       -3.22266       -0.41520
H          0.56475       -0.81071       -0.49772
H          0.63091        0.95441       -0.42086
H          0.60414        0.00067        1.07383
H          2.88028        0.02253       -1.01926
H          2.57718        1.26774        1.69116
H          5.07308        0.06397        0.57340
H          4.52922        0.02754        2.26550
H          2.58728       -1.41752        1.75166
H          4.54215       -4.06934       -0.93492
