13
-1395.68
N          1.00000        0.00000        0.00000
C          2.15101        0.00000        0.00000
C          3.59501        0.00000        0.00000
N          4.17815       -1.22780        0.61785
C          4.61782       -0.84767        1.97475
C          4.69683        0.63385        1.95550
C          4.12525        1.11281        0.84910
H          3.97893        0.09534       -1.02167
H          5.01258       -1.46416        0.08344
H          5.58819       -1.29992        2.20118
H          3.89002       -1.18653        2.71884
H          5.12105        1.22983        2.75186
H          4.01953        2.16101        0.60486
