19
-1791.17
C          2.73841       -0.77048        1.76749
C          2.49891       -0.19361        0.39743
C          1.61971       -0.77175       -0.44044
C          3.27929        1.04836       -0.01623
N          2.86139        2.18905        0.80654
C          4.82717        0.87124        0.04208
N          5.33566       -0.18908       -0.83461
H          2.57285       -0.01946        2.54638
H          3.76343       -1.14512        1.85514
H          2.06576       -1.60798        1.98099
H          1.05915       -1.65957       -0.16060
H          1.43874       -0.37434       -1.43551
H          3.02676        1.30487       -1.05373
H          3.10826        2.02406        1.77859
H          1.84560        2.25683        0.76848
H          5.14678        0.66357        1.07016
H          5.30704        1.81206       -0.25393
H          4.86853       -1.06610       -0.60865
H          6.32710       -0.32833       -0.65051
