16
-1517.15
N          2.83024       -1.05947       -0.57198
C          2.19727        0.07960        0.08183
C          3.19099        1.20697        0.17030
O          4.34813        0.93405        0.99521
C          3.44317        2.09296       -1.01945
C          2.71777        2.64029        0.17815
O          3.47160        3.53886        1.01178
H          2.27381       -1.89626       -0.41444
H          3.73693       -1.22077       -0.13128
H          1.87959       -0.20164        1.09173
H          1.30499        0.37271       -0.48135
H          4.08713        0.88740        1.93216
H          2.87114        1.90862       -1.92143
H          4.46066        2.41243       -1.20760
H          1.65630        2.83509        0.06901
H          4.39738        3.23803        1.07793
