17
-1694.6
C          3.90696       -0.00118       -1.26361
O          2.90675        0.77514       -0.61086
C          3.40336        1.92504       -0.00570
C          2.65805        3.03175       -0.13247
C          4.67450        1.89169        0.74482
C          4.71925        2.39132        2.16861
C          4.81779        0.92178        1.89215
H          3.40127       -0.75542       -1.87375
H          4.53425       -0.52535       -0.53646
H          4.52045        0.61709       -1.92799
H          1.72344        3.00972       -0.68256
H          2.96191        3.97254        0.31175
H          5.55339        2.07772        0.13501
H          3.80868        2.75335        2.63266
H          5.61451        2.90883        2.49317
H          5.77852        0.44012        2.02988
H          3.96917        0.30041        2.15776
