17
-1651.31
C          1.93621       -0.28448       -1.42486
O          2.21939        0.16439       -0.10677
C          2.97906        1.36410       -0.08159
C          2.19117        2.59504       -0.47087
C          2.98808        3.69994        0.18689
O          3.57661        3.14765        1.37215
C          3.39027        1.72388        1.33903
H          1.40052       -1.23538       -1.35500
H          2.86273       -0.44802       -1.98386
H          1.29856        0.43152       -1.95133
H          3.87692        1.26513       -0.70563
H          1.17715        2.54572       -0.05488
H          2.09465        2.73084       -1.55195
H          3.80225        4.04040       -0.46185
H          2.36945        4.56268        0.45014
H          4.31776        1.22546        1.63780
H          2.61748        1.45707        2.06917
