15
-1540.41
C          4.47486       -0.94750       -2.50120
C          4.13096       -0.53190       -1.42646
C          3.71556       -0.03518       -0.10586
C          4.28088        1.35240        0.19679
C          5.77559        1.34975        0.31008
C          6.64582        1.90536       -0.78713
O          6.35357        2.65956        0.39753
H          4.77988       -1.31942       -3.45121
H          4.03120       -0.74474        0.66808
H          2.62084        0.01212       -0.06828
H          3.86609        1.69733        1.15164
H          3.95240        2.06712       -0.56844
H          6.16959        0.58949        0.97098
H          6.18449        2.22797       -1.71211
H          7.64833        1.51144       -0.89571
