16
-1428.63
C          0.93758       -0.03357       -0.04635
N          2.39676        0.11475       -0.16955
C          3.00009       -0.76496       -1.18366
S          3.03908        1.67275       -0.00621
C          2.49739        2.47312       -1.50414
O          2.37272        2.32047        1.10315
O          4.48175        1.57268       -0.05911
H          0.55280        0.52771        0.80942
H          0.68516       -1.08524        0.12510
H          0.43349        0.30009       -0.95773
H          2.71223       -1.80381       -0.99141
H          4.09193       -0.72648       -1.14296
H          2.66271       -0.49150       -2.18731
H          2.91391        1.94876       -2.36550
H          2.87168        3.49962       -1.48571
H          1.40683        2.48330       -1.53500
