17
-1699.02
C          2.35116       -0.63406       -1.49417
C          2.40929        0.15676       -0.21221
C          1.58075       -0.13972        0.80394
C          3.45466        1.19541       -0.13040
C          3.48262        2.30518       -1.15086
C          3.07554        2.60585        0.25897
O          4.02909        3.34299        1.03969
H          3.33997       -1.03744       -1.73663
H          2.02223        0.00104       -2.32269
H          1.65744       -1.47900       -1.42715
H          0.83547       -0.92499        0.72644
H          1.63140        0.40146        1.74438
H          4.41294        0.81810        0.21288
H          2.70826        2.35532       -1.90769
H          4.44784        2.65837       -1.49352
H          2.02712        2.83494        0.42562
H          4.91343        2.94040        1.02153
