17
-1698.47
C          1.00000        0.00000        0.00000
C          2.44400        0.00000        0.00000
C          3.63416        0.00000        0.00000
C          5.07816        0.00000        0.00000
C          5.61825       -0.79114       -1.19318
C          5.62242        1.43589       -0.00003
O          7.03844        1.45540        0.16653
H          0.60602        1.02088        0.01163
H          0.60594       -0.52052        0.87825
H          0.60601       -0.50032       -0.88995
H          5.43992       -0.50162        0.90680
H          5.31730       -0.33636       -2.14412
H          5.23924       -1.81948       -1.18477
H          6.71191       -0.84021       -1.17249
H          5.18203        2.02721        0.81164
H          5.38786        1.94732       -0.94070
H          7.23189        1.10301        1.05225
