17
-1710.94
C          0.95153        0.09341       -0.04819
C          2.41743       -0.25908       -0.11375
C          2.68927       -1.67661       -0.54223
O          2.20074       -2.56515        0.45082
C          3.34596        0.67247        0.17869
C          4.78042        0.50708        0.16128
C          5.62510        1.50297        0.45702
H          0.78602        1.13745        0.23838
H          0.43720       -0.53421        0.68727
H          0.48098       -0.05828       -1.02565
H          3.74741       -1.89647       -0.69834
H          2.17492       -1.89406       -1.48425
H          2.56836       -2.25918        1.29912
H          3.00046        1.66717        0.46466
H          5.20228       -0.45852       -0.09994
H          5.28080        2.49618        0.72694
H          6.69856        1.34031        0.43190
