17
-1647.08
C          3.04960       -1.19352       -0.46164
C          2.37903        0.03136        0.14056
C          3.30680        1.21006        0.19172
O          4.45649        1.04389        1.04421
C          3.52124        2.06082       -1.02943
C          2.75221        2.61372        0.13861
O          3.44841        3.58596        0.93807
H          2.34876       -2.03321       -0.49319
H          3.91925       -1.49774        0.12846
H          3.38985       -0.99242       -1.48206
H          2.03785       -0.20209        1.15630
H          1.48338        0.27093       -0.44653
H          4.18023        0.84434        1.95661
H          2.96632        1.82460       -1.92977
H          4.51814        2.44064       -1.21717
H          1.68274        2.74482        0.01373
H          4.34960        3.26595        1.13469
