13
-1393.37
C          0.90104        2.34169       -1.66165
C          1.98334        2.01692       -0.95225
O          2.86048        2.99243       -0.47736
C          3.92386        2.53637        0.25130
O          4.20111        1.38128        0.53361
C          4.71790        3.71841        0.66208
C          5.82255        3.57976        1.40665
H          0.22585        1.57471       -2.02535
H          0.66972        3.37632       -1.89136
H          2.24484        0.99569       -0.70467
H          4.37147        4.69306        0.33992
H          6.17112        2.60339        1.73131
H          6.40235        4.44607        1.70774
