15
-1552.1
C          0.85369        0.26951        0.17513
C          2.33540        0.04773        0.04568
C          2.92962       -1.15311       -0.09303
C          2.29022       -2.50155       -0.10542
O          2.51786       -3.09431       -1.37401
C          3.17450        1.20765        0.05552
C          3.87432        2.18139        0.06358
H          0.53204        1.08793       -0.47917
H          0.60087        0.53753        1.20633
H          0.26106       -0.60434       -0.10536
H          4.01547       -1.18827       -0.18889
H          1.21539       -2.48813        0.08455
H          2.75210       -3.13704        0.65644
H          2.22036       -2.45418       -2.04298
H          4.49815        3.04574        0.07059
