17
-1708.57
C          1.05912        0.03175       -0.29901
O          2.47305        0.15792       -0.23031
C          3.00496        1.41723       -0.06619
C          2.30687        2.56007        0.03511
C          4.45905        1.44277       -0.00529
C          5.26100        0.36969       -0.08580
C          6.75189        0.43313       -0.01909
H          0.82198       -1.02840       -0.42925
H          0.65780        0.57405       -1.16134
H          0.58936        0.36934        0.63055
H          1.22572        2.59519       -0.00424
H          2.80501        3.51615        0.16365
H          4.91644        2.42365        0.11666
H          4.83222       -0.62336       -0.20702
H          7.11861        1.45794        0.09633
H          7.18375        0.01753       -0.93456
H          7.11223       -0.15594        0.82976
