15
-1497.53
N          1.23514       -0.13416        0.04194
N          2.57495        0.06248        0.06082
C          2.99385        1.29826        0.04518
C          2.11447        2.51496        0.09737
C          2.45073        3.73093       -0.35599
C          4.46315        1.57680        0.05295
C          5.33423        0.70874       -0.47658
H          1.04440       -1.13043        0.17291
H          0.85902        0.08747       -0.88319
H          1.12436        2.35151        0.51142
H          3.40744        3.94432       -0.81864
H          1.74043        4.54935       -0.29162
H          4.80459        2.49573        0.51420
H          5.00485       -0.22089       -0.93194
H          6.39966        0.90921       -0.45766
