19
-1839.26
C          1.98304       -0.48341       -1.33920
O          2.22779        0.08070       -0.05976
C          3.05336        1.26340       -0.04450
C          2.38132        2.58639       -0.48997
C          3.17008        3.29360        0.62820
C          3.23435        1.92749        1.35251
C          4.52105        1.61398        2.08886
H          1.35966       -1.37286       -1.21446
H          2.92679       -0.77516       -1.80911
H          1.45442        0.23310       -1.97443
H          4.00995        1.08172       -0.55437
H          1.29452        2.60510       -0.34957
H          2.61427        2.91639       -1.50584
H          4.14148        3.68077        0.29910
H          2.63312        4.08573        1.15636
H          2.36603        1.76345        2.00679
H          5.39958        1.77273        1.45480
H          4.52894        0.57119        2.42226
H          4.62306        2.25076        2.97353
