12
-1222.72
C          1.02231        0.02499       -0.17257
C          2.33708       -0.05738        0.03709
C          3.24615       -1.23060        0.14984
N          4.48481       -0.59876        0.62651
N          4.46387        0.76453        0.51775
C          3.23836        1.08701        0.23908
H          0.42165       -0.87000       -0.30061
H          0.51250        0.98209       -0.21452
H          3.40623       -1.69076       -0.82993
H          2.88887       -1.97435        0.86639
H          5.32202       -1.00544        0.21001
H          2.86801        2.11598        0.12642
