12
-1339.47
C          2.88909       -1.10848        0.37131
C          2.28860        0.06407        0.13111
C          3.00923        1.28842        0.06415
N          2.46726        2.47717       -0.17025
C          3.50997        3.36663       -0.14806
C          4.67662        2.69869        0.10126
O          4.38183        1.38059        0.23896
H          2.30857       -2.02424        0.41572
H          3.96081       -1.18900        0.52839
H          1.21593        0.11391       -0.02196
H          3.36152        4.42376       -0.31100
H          5.71409        2.97766        0.20514
