12
-1247.8
O          1.02089       -0.01024        0.26474
C          2.42000        0.00000        0.00000
C          2.61393       -0.73233       -1.29747
C          3.28270       -0.34430       -2.39387
C          2.90202        1.36117        0.00000
C          3.29930        2.48307        0.00000
H          0.87295        0.62680        0.98275
H          2.90491       -0.57406        0.79712
H          2.13209       -1.70854       -1.32588
H          3.78915        0.61330       -2.45857
H          3.32910       -0.98852       -3.26679
H          3.65360        3.48813       -0.00758
