19
-1799.65
C          0.93492       -0.17665        0.01675
C          2.43667        0.07128       -0.11646
C          3.07880       -0.84569       -1.15537
N          2.72336        1.48518       -0.41653
C          2.13412        2.07718       -1.60976
C          3.48629        2.23187        0.44714
N          3.80147        3.47430        0.37323
H          0.49134        0.50789        0.74784
H          0.74417       -1.20107        0.35404
H          0.40690       -0.03931       -0.93220
H          2.88230       -0.18924        0.85260
H          2.63982       -0.71448       -2.14934
H          2.95083       -1.89588       -0.87237
H          4.15281       -0.64653       -1.23714
H          1.65572        1.33889       -2.25955
H          2.90312        2.57681       -2.20832
H          1.37508        2.81392       -1.32744
H          3.86407        1.65633        1.30890
H          3.39261        3.89128       -0.46267
