14
-1412.14
C          1.00306        0.00474       -0.04737
N          2.43548        0.18259        0.09343
C          3.29775       -0.98883        0.01937
C          3.56839       -1.44110       -1.40701
O          2.80826       -1.27330       -2.35747
C          3.00857        1.43385        0.00621
O          4.21242        1.65468       -0.03863
H          0.48033        0.95813        0.07202
H          0.65557       -0.69229        0.72031
H          0.77688       -0.39614       -1.03834
H          2.85166       -1.81549        0.58054
H          4.26683       -0.75269        0.47236
H          4.48671       -2.04050       -1.53159
H          2.26921        2.25158        0.00588
