17
-1559.8
C          1.87093       -0.39292        1.08810
O          3.13520        0.25651        1.13525
C          3.15599        1.51760        0.44152
C          2.41627        2.58604        1.24211
C          4.63345        1.92430        0.26331
N          5.35631        0.94783       -0.56206
H          1.99310       -1.40193        1.48945
H          1.50736       -0.47033        0.06009
H          1.14370        0.13375        1.71039
H          2.69339        1.40278       -0.54734
H          2.79026        2.63399        2.27033
H          1.34624        2.36199        1.30324
H          2.52379        3.57238        0.78016
H          5.12356        1.97051        1.24275
H          4.70950        2.90969       -0.20687
H          5.15369        0.02150       -0.17542
H          6.35848        1.08966       -0.44419
