11
-1263.34
C          1.00000        0.00000        0.00000
C          2.44400        0.00000        0.00000
C          3.63416        0.00000        0.00000
C          5.28689       -0.00000       -0.00000
C          6.51527       -0.00000       -0.00001
C          7.98426       -0.00000       -0.00000
C          9.20477        0.00000        0.00000
H          0.40848        0.94298        0.08567
H          0.49472       -0.41807        0.89148
H          0.37750       -0.43499       -0.81260
H         10.23937        0.00000        0.00000
