15
-1518.66
C          1.07332       -0.03858        0.26250
C          2.41749        0.17940       -0.34490
C          3.17645        1.27525       -0.21125
C          2.85029        2.53203        0.51209
O          3.69614        3.49854       -0.10261
C          4.75864        2.74096       -0.67970
O          4.38308        1.37398       -0.87538
H          1.03567       -1.02376        0.73909
H          0.30343       -0.00582       -0.51469
H          0.82697        0.70828        1.02431
H          2.79979       -0.63542       -0.95921
H          3.10873        2.46020        1.57251
H          1.81078        2.84651        0.39842
H          5.02748        3.18202       -1.64331
H          5.63018        2.78199       -0.01661
