13
-1391.46
C          1.10809       -0.05856        0.03879
C          2.61176       -0.08127        0.04574
C          3.20564       -1.44601        0.14148
O          2.50112       -2.44916        0.21120
C          3.32815        1.05344       -0.03042
C          4.80233        1.20565       -0.03354
O          5.59520        0.28134        0.05714
H          0.71239        0.96033       -0.03016
H          0.71316       -0.50264        0.95860
H          0.71973       -0.62056       -0.81708
H          4.29882       -1.52944        0.14577
H          2.80998        2.00647       -0.10014
H          5.14689        2.25063       -0.12536
