21
-2045.98
C          2.27408       -0.45083       -1.50990
C          2.45075        0.02538       -0.07762
C          3.25006        1.32013       -0.03937
C          2.53783        2.61243       -0.52313
C          3.28000        3.36234        0.60102
C          3.35485        2.01139        1.35704
C          4.61994        1.75180        2.14977
H          1.71710       -1.39296       -1.53218
H          3.24384       -0.61525       -1.99215
H          1.72400        0.28451       -2.10658
H          2.97483       -0.74752        0.49497
H          1.46716        0.16059        0.38500
H          4.23530        1.19291       -0.51412
H          1.44886        2.60502       -0.39955
H          2.77667        2.93251       -1.54174
H          4.25131        3.76526        0.29051
H          2.71086        4.15267        1.09715
H          2.46584        1.84465        1.98226
H          5.51775        1.92189        1.54656
H          4.64400        0.71750        2.50745
H          4.66894        2.41079        3.02236
