15
-1509.03
C          0.91920        0.00884        0.15685
C          2.43457        0.00371       -0.03553
C          3.16044        1.00173        0.88462
O          3.59471       -0.05829        1.76536
C          3.14961       -1.05852        0.81857
C          2.83863        0.03004       -1.53461
O          2.57111       -0.82899       -2.37477
H          0.64408       -0.01031        1.21742
H          0.46259       -0.86479       -0.32054
H          0.47525        0.90702       -0.28644
H          2.52881        1.72753        1.40595
H          4.01923        1.52354        0.44950
H          4.00267       -1.55828        0.34788
H          2.51075       -1.80899        1.29365
H          3.41592        0.91812       -1.84410
