17
-1602.07
C          0.98868       -0.01100       -0.00544
C          2.52368       -0.00751        0.01067
C          3.02375       -0.71906        1.27563
C          3.05011       -0.74085       -1.23092
C          3.03218        1.44090        0.00343
H          0.60063        0.49260       -0.89818
H          0.58201        0.50540        0.87157
H          0.59470       -1.03373       -0.00220
H          2.66493       -0.21646        2.18109
H          4.11894       -0.73437        1.31495
H          2.67465       -1.75739        1.31045
H          2.70775       -0.25609       -2.15234
H          2.70438       -1.78064       -1.25329
H          4.14589       -0.75373       -1.24865
H          2.69173        1.97593       -0.89047
H          4.12753        1.47639        0.01590
H          2.67106        1.99204        0.87924
