12
-1385.06
C          0.95060       -0.01746       -0.00463
C          2.15063        0.00675       -0.00144
C          3.56998        0.03575        0.00244
C          4.39793        1.13727        0.00453
C          5.73446        0.66457        0.00838
C          5.68247       -0.71181        0.00844
N          4.36193       -1.08281        0.00477
H         -0.11404       -0.03227       -0.00737
H          4.07736        2.17110        0.00348
H          6.63537        1.26458        0.01084
H          6.46678       -1.45678        0.01082
H          4.01794       -2.03355        0.00394
