12
-1240.76
O          2.03590       -0.85158       -0.62767
C          2.11106        0.11387        0.12949
C          3.07279        1.26136       -0.05890
C          3.47729        1.48262       -1.49224
C          3.35941        2.95415       -1.53067
N          2.76508        3.49856       -0.52606
O          2.38663        2.45225        0.34488
H          1.52380        0.13694        1.06321
H          3.93222        1.11607        0.60431
H          2.80225        1.04995       -2.23557
H          4.50039        1.16173       -1.69981
H          3.73766        3.52555       -2.39002
