16
-1608.18
C          3.00165       -1.66296        1.02643
C          2.46030       -0.46127        0.29962
O          1.28508       -0.37854       -0.04961
N          3.33720        0.55808        0.03491
C          4.71126        0.61521        0.40408
C          5.76507       -0.07314       -0.41783
C          5.67943        1.42397       -0.41639
H          3.79152       -2.13562        0.43782
H          2.19720       -2.39001        1.17166
H          3.38368       -1.36925        2.00724
H          2.91904        1.34741       -0.44437
H          4.86078        0.64727        1.48119
H          5.46002       -0.59682       -1.31663
H          6.59297       -0.53658        0.10598
H          6.45056        1.97621        0.10833
H          5.32405        1.90846       -1.31827
