10
-1099.62
N          0.94687       -0.11100        0.00223
C          2.22050       -0.03137       -0.00144
C          3.06957        1.16657       -0.00162
C          4.33677        0.75191       -0.00624
C          4.22023       -0.69835       -0.00874
N          3.01014       -1.14231       -0.00599
H          0.52957        0.82074        0.00531
H          2.69789        2.17457        0.00147
H          5.24752        1.32020       -0.00785
H          5.12576       -1.32123       -0.01268
