12
-1245.87
O          2.52046       -0.64210       -1.31300
C          2.40635       -0.09541       -0.00152
C          2.93401        1.30458       -0.01788
N          2.19490        2.38305        0.16192
C          2.98954        3.50950        0.09583
C          4.33206        3.28122       -0.11045
S          4.62010        1.59701       -0.22963
H          2.03245       -1.48168       -1.30596
H          2.96524       -0.72428        0.69838
H          1.35019       -0.09724        0.28650
H          2.53397        4.48592        0.20799
H          5.13318        4.00090       -0.19373
