17
-1708.19
C          3.60313       -1.22509        0.10853
O          2.69816       -0.18877        0.47503
C          3.13106        1.09893        0.31385
C          4.30799        1.54289       -0.14917
C          4.62381        2.94842       -0.26523
C          5.80159        3.38796       -0.73330
C          6.16125        4.83182       -0.86809
H          3.11018       -2.18465        0.29109
H          4.50893       -1.18821        0.72249
H          3.85076       -1.17008       -0.95666
H          2.33731        1.76951        0.63305
H          5.08080        0.84537       -0.46058
H          3.86247        3.66243        0.04388
H          6.56617        2.67947       -1.04423
H          5.35443        5.49356       -0.53832
H          6.38703        5.06215       -1.91383
H          7.05008        5.05063       -0.26840
