12
-1246.41
N          1.12563       -0.03054       -0.34276
C          2.34738        0.00024        0.04290
N          3.08553       -1.08476        0.41243
C          4.47095       -0.69069        0.57678
C          4.36991        0.79837        0.40790
C          3.13975        1.23316        0.09924
H          0.78737       -0.99296       -0.27792
H          2.89993       -1.95889       -0.05931
H          5.10657       -1.13359       -0.19534
H          4.83776       -0.95933        1.57092
H          5.22397        1.45038        0.52033
H          2.77297        2.22326       -0.09511
