18
-1718.31
N          0.79785        0.63846       -0.77381
C          2.04321        0.19542       -0.12595
C          2.10582        0.34693        1.38890
C          0.86010       -0.16378        2.10986
O          0.65224       -1.54777        1.85525
C          2.77822       -0.96829       -0.75050
C          3.32901        0.42024       -0.88789
H          0.81177        0.44235       -1.77506
H          0.70020        1.65152       -0.69829
H          2.24989        1.40678        1.63058
H          2.98029       -0.19274        1.77493
H         -0.03920        0.38588        1.81465
H          0.98368       -0.03944        3.19020
H          0.44343       -1.60615        0.90361
H          2.36205       -1.44108       -1.63257
H          3.30314       -1.66081       -0.10062
H          4.22628        0.66579       -0.32994
H          3.28741        0.88786       -1.86468
