13
-1320.71
C          0.99013       -0.01083        0.01936
C          2.47443        0.04241        0.09173
C          3.24339        1.13288        0.02586
C          4.62197        0.62417        0.04860
N          5.72308        1.27736       -0.01363
O          4.57792       -0.74559        0.12047
N          3.22605       -1.09897        0.23716
H          0.55369        0.99239       -0.02399
H          0.58153       -0.51694        0.89970
H          0.67060       -0.55763       -0.87332
H          2.95879        2.16113       -0.08442
H          5.53183        2.28033       -0.06641
H          2.95409       -1.87206       -0.36824
