12
-1227.18
O          1.02609        0.06942       -0.12607
C          2.44272        0.01913       -0.06046
C          2.97103       -1.23107        0.65719
O          3.43705       -0.84593        1.97409
C          3.42116        0.53094        1.93684
C          2.89531        1.08628        0.85101
H          0.72038       -0.75798       -0.53240
H          2.85060        0.11234       -1.07117
H          3.83133       -1.65047        0.12311
H          2.21032       -2.00971        0.76974
H          3.80768        1.01418        2.81796
H          2.77179        2.14345        0.67888
