13
-1330.99
C          1.26665       -0.78722        0.24123
C          2.47253       -0.32942       -0.11118
C          2.78576        1.10772        0.01023
N          3.94449        1.57325       -0.32870
N          4.09123        2.91434       -0.16212
C          5.26972        3.53070       -0.48740
O          5.46226        4.73345       -0.35848
H          1.03596       -1.84502        0.15209
H          0.48344       -0.13972        0.62219
H          3.25286       -0.97829       -0.49183
H          1.97942        1.75331        0.40337
H          3.34243        3.49114        0.20477
H          6.03224        2.83686       -0.87869
