11
-1243.84
N          0.99638        0.11150       -0.00000
C          2.34605       -0.05575       -0.00000
C          3.03844       -1.20307        0.00000
C          2.42403       -2.48031       -0.00000
N          1.92200       -3.52681       -0.00000
C          3.04866        1.18436        0.00000
C          3.63600        2.23191        0.00000
H          0.60138        1.04510        0.00000
H          0.37139       -0.68645        0.00000
H          4.12272       -1.19040        0.00000
H          4.15450        3.16241        0.00000
