11
-1180.16
N          1.06190       -0.05064       -0.00472
C          2.22329       -0.03219       -0.01213
C          3.65193        0.05835       -0.02144
N          4.32490       -1.03929       -0.08934
O          5.68944       -0.64825       -0.05920
C          5.74164        0.75587       -0.35658
C          4.41172        1.31087        0.08827
H          5.89268        0.87311       -1.43542
H          6.58213        1.21481        0.17154
H          4.03624        2.10933       -0.55343
H          4.42675        1.63325        1.13313
