15
-1417.09
C          1.00240        0.08096        0.12967
C          2.49467       -0.12572       -0.03112
O          3.24562        0.93206        0.63239
C          4.11851       -0.05814        1.24391
C          3.14340       -1.18692        0.88187
N          3.81909       -2.22161        0.08687
H          0.45208       -0.76715       -0.28921
H          0.67945        0.98422       -0.39741
H          0.71946        0.18287        1.18199
H          2.78147       -0.16965       -1.09020
H          5.10043       -0.05912        0.75891
H          4.24011        0.12178        2.31573
H          2.53550       -1.55479        1.71277
H          4.38684       -1.86380       -0.68188
H          3.17966       -2.89900       -0.32766
