14
-1453.65
N          2.88558       -0.90408       -2.30875
C          3.19359       -0.48790       -1.27171
C          3.58516        0.05634        0.03303
C          4.37308        1.34321       -0.15206
C          3.61026        2.59976       -0.60355
C          4.23098        3.25013        0.62939
O          4.66166        1.96225        1.13569
H          4.19816       -0.67885        0.56659
H          2.69288        0.23343        0.64453
H          5.31311        1.18482       -0.69830
H          2.51956        2.52634       -0.56987
H          3.92657        3.01940       -1.56137
H          5.08558        3.90588        0.43811
H          3.52540        3.73938        1.30575
