13
-1311.5
C          0.95276       -0.08188        0.00577
C          2.46695        0.05888        0.00619
C          2.90335        1.47640       -0.00326
N          3.09077        2.14100       -1.14729
O          3.48966        3.41857       -0.75984
N          3.54490        3.52733        0.62942
C          3.18236        2.32606        1.07351
H          0.66940       -1.13907        0.01648
H          0.51182        0.37959       -0.88481
H          0.51042        0.39795        0.88573
H          2.87894       -0.46383       -0.86616
H          2.87454       -0.44311        0.89113
H          3.14068        2.13741        2.13520
