16
-1600.59
C          0.89359        0.04695       -0.35035
C          1.92496        0.27622        0.47131
C          2.91737        1.32744        0.14308
C          2.43007        2.79399        0.28923
C          3.83855        3.13032        0.82094
C          3.94006        1.65582        1.26361
H          0.16499       -0.72387       -0.12163
H          0.74861        0.61766       -1.26300
H          2.04931       -0.31256        1.37547
H          3.41046        1.13673       -0.82070
H          1.63624        2.94928        1.02954
H          2.14960        3.29567       -0.64098
H          4.55310        3.40686        0.03682
H          3.88084        3.87279        1.62168
H          4.92818        1.20106        1.15319
H          3.58392        1.48502        2.28647
