17
-1649.76
C          0.98352        0.10403        0.20241
C          2.46412       -0.11182       -0.08909
N          2.75678       -1.49509       -0.52105
C          2.76553       -1.52135       -1.99346
C          3.19934       -0.14442       -2.38211
N          2.24808        0.96029       -2.46393
C          2.98067        0.74401       -1.21396
H          0.79336        1.14916        0.46818
H          0.65741       -0.52364        1.03822
H          0.35400       -0.13580       -0.66111
H          3.03868        0.09252        0.82187
H          2.04603       -2.13369       -0.17233
H          3.46282       -2.28399       -2.35267
H          1.76590       -1.74370       -2.38413
H          4.12530       -0.08829       -2.93400
H          2.64950        1.74285       -2.98216
H          3.74387        1.45439       -0.93179
