19
-1810.76
C          0.86444       -0.23964       -0.20676
C          2.38827       -0.18963       -0.14538
C          2.99682       -1.23661       -1.07622
N          2.85532        1.12897       -0.54871
C          2.73532        2.27222        0.19976
C          2.74821        3.58695       -0.54567
N          2.62233        2.31526        1.48249
H          0.41882        0.48119        0.48761
H          0.49444       -1.23499        0.06120
H          0.49762        0.00185       -1.21125
H          2.72053       -0.41791        0.87305
H          2.70374       -1.06611       -2.11860
H          2.67494       -2.24448       -0.79348
H          4.09132       -1.20591       -1.03193
H          2.82851        1.27799       -1.55356
H          3.71559        3.71287       -1.03969
H          2.58222        4.42377        0.13814
H          1.95853        3.58258       -1.30221
H          2.66273        1.37254        1.86717
