12
-1248.73
O          2.63075        3.26978       -0.27690
C          2.46907        2.33813       -1.04973
C          3.18756        1.02602       -0.86973
O          2.74589        0.00403       -1.37444
C          4.42482        1.09346       -0.06292
C          5.48211        0.02598       -0.19609
N          5.65709        1.31989       -0.84010
H          1.78349        2.36044       -1.91071
H          4.35537        1.62570        0.87940
H          5.29296       -0.81403       -0.85495
H          6.11450       -0.18756        0.65641
H          6.30760        1.90751       -0.31350
