15
-1555.5
C          2.01696       -1.04749       -0.24429
C          3.20869       -0.48411       -0.01509
C          3.46449        0.92052       -0.22259
C          4.65760        1.49044        0.00913
C          4.97887        2.90820       -0.18293
C          4.56801        3.89487        0.88129
O          5.94428        3.58290        0.64031
H          1.86906       -2.10932       -0.07406
H          1.16548       -0.47798       -0.60285
H          4.02679       -1.10522        0.34443
H          2.64170        1.53430       -0.58326
H          5.48119        0.87656        0.36887
H          4.92708        3.23609       -1.21664
H          4.12994        3.53080        1.80227
H          4.21295        4.86794        0.56669
