12
-1241.55
C          3.03156       -1.06508        0.53600
O          2.25022        0.09285        0.26783
C          3.01238        1.20518        0.15334
C          2.40714        2.41654       -0.10709
S          3.58940        3.65376       -0.20279
C          4.80226        2.48170        0.10853
N          4.38770        1.24545        0.27668
H          2.35145       -1.91870        0.61484
H          3.56422       -0.97103        1.48891
H          3.73179       -1.26809       -0.28196
H          1.35551        2.62177       -0.24099
H          5.84851        2.75258        0.16206
