11
-1109.98
C          1.21680       -0.46873       -0.41935
C          2.50309       -0.35423       -0.08299
O          3.16460        0.84398       -0.15761
C          4.48180        0.90689        0.21683
C          5.17813        2.04326        0.14832
H          0.70609       -1.42278       -0.35655
H          0.65360        0.39249       -0.76340
H          3.08877       -1.19438        0.26225
H          4.91522       -0.01797        0.57033
H          4.71635        2.95717       -0.21034
H          6.21911        2.07903        0.44869
