12
-1254.73
O          1.00007       -0.00516       -0.00868
C          2.42000        0.00000        0.00000
C          2.90202        1.36117        0.00000
C          3.29930        2.48307        0.00000
C          3.76863        3.80842        0.00000
C          2.92791        4.84813       -0.00005
H          0.72484       -0.93605       -0.00824
H          2.77142       -0.54052       -0.88423
H          2.76054       -0.53666        0.89082
H          4.84127        3.97615        0.00002
H          1.85065        4.70895       -0.00011
H          3.30400        5.86546       -0.00007
