15
-1438.39
C          1.02961       -0.12177        0.16015
N          2.48129        0.11520        0.22870
C          3.33204       -0.99219        0.17148
C          2.96499       -2.27962        0.16509
C          2.97890        1.42725        0.21732
N          4.28537        1.57347        0.59040
S          2.16760        2.82586       -0.21003
H          0.44790        0.77766        0.37238
H          0.74038       -0.86152        0.91307
H          0.77465       -0.47971       -0.84222
H          4.39483       -0.77906        0.08806
H          1.93724       -2.61424        0.21820
H          3.72221       -3.05562        0.09625
H          4.64749        0.94664        1.29618
H          4.60989        2.53082        0.66446
