13
-1306.65
N          1.52664       -0.60505        0.75086
C          2.54593       -0.22029       -0.08071
N          2.92221       -0.99189       -1.04934
C          3.20233        1.16631        0.15717
O          2.97382        1.52465        1.52714
C          4.64901        1.17650       -0.10788
C          5.83132        1.19234       -0.31679
H          1.45043       -0.03843        1.59509
H          1.41672       -1.59728        0.91260
H          2.33475       -1.82815       -1.06069
H          2.68025        1.89323       -0.47284
H          3.68114        1.08681        2.03159
H          6.87880        1.19976       -0.51506
