17
-1715.74
C          1.04537       -0.05395        0.07586
C          2.54938        0.07656       -0.17639
C          2.93769       -0.67223       -1.45659
C          4.43406       -0.81892       -1.56494
O          4.99800       -1.90645       -1.64429
C          2.91695        1.54047       -0.26138
C          3.78467        2.14209        0.56330
H          0.75468        0.46728        0.99467
H          0.76140       -1.10596        0.18744
H          0.46121        0.36648       -0.74998
H          3.07261       -0.38342        0.67281
H          2.58047       -0.15572       -2.35454
H          2.50438       -1.67877       -1.45548
H          5.01335        0.11923       -1.61278
H          2.43444        2.13471       -1.03654
H          4.28711        1.60342        1.36078
H          4.00530        3.20084        0.46181
