19
-1784.1
N          1.14794        2.14871        0.34919
C          2.49453        1.87493       -0.13753
C          3.40691        1.44601        1.01118
C          4.79602        1.12337        0.47636
C          5.69522        2.30642        0.04372
C          6.81655        1.52713        0.75011
N          5.77208        0.87827        1.57340
H          0.57730        2.51129       -0.41317
H          1.18121        2.88229        1.05641
H          2.89341        2.77108       -0.62541
H          2.44723        1.08587       -0.89606
H          2.98750        0.55841        1.50243
H          3.45467        2.24103        1.76697
H          4.78057        0.30661       -0.25929
H          5.45528        3.26668        0.51568
H          5.81615        2.45235       -1.03237
H          7.36047        0.83275        0.09901
H          7.53463        2.13139        1.31031
H          5.94055       -0.10408        1.78455
