19
-1904.01
C          1.07167        0.03414        0.27167
C          2.43117        0.22869       -0.41214
C          2.65652       -0.60360       -1.65804
C          1.79196       -1.43148       -2.26079
C          2.69984        1.70375       -0.69559
C          1.75233        2.42975       -1.61560
C          3.74987        2.34146       -0.14892
H          0.99200        0.66201        1.16696
H          0.94232       -1.00685        0.59032
H          0.23423        0.28700       -0.38839
H          3.18012       -0.12400        0.31154
H          3.65129       -0.51058       -2.09436
H          0.78371       -1.59146       -1.89496
H          2.08523       -1.97685       -3.15305
H          0.74926        2.47351       -1.18202
H          1.69344        1.93101       -2.58754
H          2.07332        3.46100       -1.79856
H          4.44429        1.83320        0.51327
H          3.94654        3.39105       -0.34963
