13
-1351.87
O          0.89527       -0.16733        0.00691
C          2.12268       -0.07707       -0.00441
C          2.80522        1.26012       -0.05555
C          4.31467        1.23125       -0.03561
C          4.91611       -0.13485       -0.01179
N          4.26099       -1.24819        0.01611
N          2.90802       -1.19309        0.02269
H          2.44223        1.84956        0.79494
H          2.46355        1.76835       -0.96553
H          4.69424        1.77264        0.83915
H          4.71644        1.75395       -0.91160
H          6.01817       -0.18557       -0.01377
H          2.42385       -2.08644        0.05173
