16
-1609.93
C          1.08458       -0.23285       -0.99764
C          2.11311       -0.12867       -0.14545
C          2.92468        1.11164        0.06372
N          4.32340        0.81812       -0.22226
C          5.15727        1.99419        0.00160
C          6.54858        1.68438       -0.34797
C          7.68925        1.43174       -0.63477
H          0.53923       -1.16684       -1.09364
H          0.76632        0.60026       -1.61604
H          2.39069       -0.99342        0.45445
H          2.80730        1.42524        1.10768
H          2.56174        1.92578       -0.57525
H          4.40772        0.54113       -1.19935
H          5.10795        2.29842        1.05343
H          4.81053        2.83597       -0.60942
H          8.69766        1.20055       -0.88492
