19
-1839.37
C          2.82738       -0.73184       -1.42679
C          2.58818       -0.15815       -0.03793
C          3.15690        1.25587        0.15359
O          2.79410        1.67176        1.47600
C          2.79122        3.08540        1.63198
C          4.65928        1.26933        0.05077
C          5.35467        1.95588       -0.86475
H          2.34499       -1.71032       -1.51642
H          3.89408       -0.86882       -1.62722
H          2.41091       -0.07719       -2.19843
H          3.00235       -0.83897        0.71755
H          1.50758       -0.13235        0.15507
H          2.69444        1.92420       -0.58435
H          2.51886        3.31374        2.66620
H          2.04867        3.54121        0.96982
H          3.78122        3.50772        1.43624
H          5.19557        0.67914        0.79134
H          4.86398        2.56346       -1.61890
H          6.44016        1.92308       -0.87433
