18
-1793.18
C          1.01767        0.04686        0.08223
C          2.35873        0.00306        0.02310
C          3.12462       -1.29214       -0.00435
C          4.10990       -1.29053       -1.17082
C          4.95820       -0.01863       -1.17549
N          4.11733        1.17840       -1.20632
C          3.21986        1.23581       -0.05221
H          0.48120        0.99048        0.08128
H          0.42226       -0.86024        0.11944
H          2.45708       -2.15759       -0.08946
H          3.67205       -1.40107        0.94037
H          4.76095       -2.17003       -1.10605
H          3.55993       -1.36957       -2.11822
H          5.61781        0.00321       -0.29954
H          5.60173       -0.02160       -2.06159
H          4.70869        2.00713       -1.20509
H          3.79956        1.33659        0.87395
H          2.60217        2.13686       -0.13853
