14
-1456.42
C          1.00897       -0.22608       -0.00028
C          2.49259       -0.04326       -0.00100
C          3.13902        1.13799        0.00000
C          2.44421        2.47384        0.00297
C          4.54502        1.13799        0.00000
C          5.73518        1.13799        0.00000
H          0.76642       -1.29277       -0.01159
H          0.55621        0.22505       -0.88910
H          0.56053        0.20552        0.90090
H          3.07285       -0.96442       -0.00203
H          1.35410        2.39121        0.00008
H          2.73178        3.05198       -0.88191
H          2.72754        3.04551        0.89351
H          6.80011        1.13659       -0.00001
