16
-1614.67
N          1.02383        0.01104        0.12214
C          2.46647        0.01938       -0.07297
C          3.10497        1.05675        0.87444
C          4.16881       -0.02121        1.22636
C          3.10809       -1.07675        0.80372
C          5.37525        0.00653        0.41716
C          6.36508        0.02824       -0.26397
H          0.55788       -0.76827       -0.34232
H          0.56309        0.85247       -0.22378
H          2.80915        0.05615       -1.11158
H          2.49798        1.35085        1.74111
H          3.47371        1.96782        0.39272
H          4.40391       -0.05586        2.29712
H          3.47996       -1.95293        0.26326
H          2.50240       -1.42934        1.64923
H          7.23844        0.04670       -0.87301
