20
-1869.38
C          0.99110       -0.03698        0.19389
C          2.47782       -0.04204       -0.14639
C          3.06894        1.33961       -0.49186
C          2.35164        1.99165       -1.67782
O          2.90795        2.20375        0.64157
C          4.59349        1.19482       -0.75715
N          5.26084        2.50485       -0.83364
H          0.68232       -1.03401        0.52386
H          0.38302        0.22176       -0.67686
H          0.76711        0.66754        0.99930
H          2.64935       -0.74031       -0.97564
H          3.00616       -0.44605        0.72793
H          2.41781        1.37064       -2.57713
H          2.76821        2.97881       -1.90692
H          1.29432        2.17296       -1.45415
H          3.64838        2.84273        0.57206
H          4.78044        0.62500       -1.67397
H          5.05689        0.65295        0.07553
H          4.98949        2.97287       -1.69893
H          6.26804        2.35356       -0.91258
