11
-1185.51
C          0.98082       -0.02114       -0.00655
C          2.45608        0.02380        0.00011
C          3.29951        1.11137        0.00089
O          4.58241        0.65400        0.00788
C          4.44323       -0.69980        0.01099
N          3.20263       -1.13253        0.00654
H          0.55152        0.98551        0.00326
H          0.61268       -0.55763        0.87327
H          0.62029       -0.53738       -0.90150
H          3.16872        2.18314       -0.00264
H          5.35430       -1.28093        0.01673
