16
-1615.57
C          0.99014       -0.05157        0.08275
C          2.49676        0.07563       -0.00518
C          3.16741        1.11469        0.91681
C          4.19180        0.00621        1.23107
N          3.19536       -0.98291        0.76022
C          5.38530       -0.02413        0.40782
C          6.37316       -0.05108       -0.27681
H          0.64040       -0.92559       -0.47698
H          0.50774        0.83224       -0.34755
H          0.64439       -0.15052        1.11759
H          2.83776        0.14672       -1.04694
H          2.56764        1.41442        1.78509
H          3.54442        2.01590        0.42439
H          4.41973       -0.08650        2.29890
H          3.58366       -1.73284        0.19067
H          7.24782       -0.07553       -0.88431
