16
-1569.33
C          0.79612        0.01784        0.01884
N          2.24079        0.04117        0.18704
C          3.01309       -0.81911       -0.69649
C          2.55879       -1.40691       -1.98718
O          2.53062       -0.34759       -2.96164
C          2.56143        0.91709       -2.27514
C          3.01291        0.66101       -0.87907
H          0.37176        0.94524        0.41791
H          0.37751       -0.80824        0.60348
H          0.43130       -0.09153       -1.00637
H          3.89493       -1.29060       -0.28427
H          3.25333       -2.17311       -2.34412
H          1.56331       -1.85673       -1.92173
H          3.25957        1.57063       -2.80696
H          1.56813        1.37339       -2.32322
H          3.89482        1.21874       -0.59389
