17
-1625.88
C          1.72404       -0.35106        1.04816
N          3.04982        0.15074        0.70461
C          3.01352        1.56423        0.23641
C          2.53221        2.53575        1.31167
C          4.43946        1.97551       -0.18499
N          5.43447        1.48943        0.61793
O          4.68332        2.72115       -1.12547
H          1.78978       -1.42305        1.25964
H          1.01327       -0.21511        0.22709
H          1.33413        0.12792        1.95093
H          3.41021       -0.41338       -0.06881
H          2.38121        1.63574       -0.65709
H          3.09235        2.41282        2.24545
H          1.46830        2.39919        1.52913
H          2.66983        3.57277        0.98525
H          5.20476        0.74096        1.26305
H          6.39522        1.66311        0.36177
