17
-1727.17
C          3.04067       -0.82621       -0.96172
C          2.57382        0.07299        0.17609
C          2.96530        1.51512       -0.03458
C          2.05897        2.46056       -0.33531
C          4.41845        1.85093        0.15997
C          4.92517        3.21201       -0.23991
O          5.18142        1.01657        0.64890
H          2.67764       -1.84732       -0.80684
H          4.13275       -0.86639       -1.02086
H          2.65997       -0.47461       -1.92641
H          2.97679       -0.29133        1.12875
H          1.48285       -0.01447        0.25990
H          1.00919        2.20501       -0.45497
H          2.30822        3.50797       -0.46344
H          4.61239        3.45238       -1.26018
H          6.02025        3.20815       -0.22318
H          4.56800        3.96835        0.46409
