15
-1522.96
C          1.04407       -0.00964       -0.04647
C          2.53386       -0.00290       -0.03907
N          3.27029       -0.61215       -1.13992
C          3.31153        0.84779       -1.02074
C          4.57139        1.52435       -0.56785
C          5.24004        1.95880       -1.79971
N          5.76379        2.33372       -2.76536
H          0.66379        0.78338        0.60502
H          0.66851       -0.96682        0.32889
H          0.63188        0.14916       -1.04866
H          2.94224       -0.17237        0.95083
H          2.64820       -0.89803       -1.90007
H          2.74030        1.42368       -1.74313
H          5.21519        0.85387        0.01137
H          4.32449        2.38723        0.05897
