13
-1311.6
O          1.17719       -0.01101        0.55756
C          2.34015        0.01779        0.17262
C          3.15680        1.26657        0.04197
C          4.28389        0.75648       -0.84325
N          4.49508       -0.63923       -0.44716
C          3.14862       -1.19458       -0.23308
H          3.51451        1.56732        1.03086
H          2.58837        2.06623       -0.43747
H          3.99223        0.80310       -1.89977
H          5.19533        1.34747       -0.71608
H          4.98600       -1.15778       -1.17462
H          2.73987       -1.60566       -1.16044
H          3.15933       -1.93984        0.56455
