9
-871.86
N          1.01468       -0.01517        0.01819
C          2.47000        0.00000        0.00000
C          2.95202        1.36117        0.00000
C          3.34930        2.48307        0.00000
H          0.69117       -0.97621       -0.07441
H          0.66954        0.48569       -0.79912
H          2.82659       -0.53203       -0.88836
H          2.84463       -0.53973        0.87560
H          3.69787        3.48908        0.00624
