15
-1473.59
N          1.13419        1.60184       -0.89444
C          2.26651        0.97875       -0.51921
N          2.43701       -0.29073       -0.48534
O          3.21803        1.85822       -0.15266
C          4.49287        1.29320        0.18577
C          5.42484        2.43058        0.47919
C          6.21965        2.50685        1.55468
H          1.09782        2.56651       -0.58685
H          0.27463        1.09468       -0.73908
H          1.58879       -0.74263       -0.83137
H          4.88313        0.72626       -0.66721
H          4.38646        0.63602        1.05750
H          5.44366        3.23543       -0.25198
H          6.24051        1.72338        2.30473
H          6.87401        3.36087        1.70133
