18
-1711.91
N          0.86728        0.09838       -0.22711
C          2.31282       -0.06579       -0.28082
C          3.00663        1.20484        0.20787
C          4.51746        1.02477        0.17392
C          5.20440        1.07978       -1.19713
O          6.12996        2.09161       -0.73295
C          5.34794        2.27979        0.47093
H          0.41539       -0.74327       -0.58201
H          0.57968        0.85734       -0.84419
H          2.61705       -0.29823       -1.30651
H          2.60221       -0.91588        0.34582
H          2.69123        1.42638        1.23586
H          2.70671        2.06065       -0.41088
H          4.84561        0.16775        0.77613
H          4.60110        1.45340       -2.03000
H          5.72033        0.16317       -1.49565
H          5.96740        2.22513        1.37025
H          4.81446        3.23511        0.44687
