19
-1763.37
C          2.67829       -0.59025       -0.02029
C          1.60989        0.46907        0.22682
N          2.17274        1.65282        0.91446
C          1.21222        2.77611        0.81911
C          1.36734        3.52680       -0.49771
N          2.62385        1.39336        2.17638
C          3.67569        2.08046        2.47758
H          2.24502       -1.43878       -0.55984
H          3.09666       -0.97091        0.91682
H          3.49693       -0.18857       -0.62669
H          0.79372        0.03705        0.81957
H          1.19423        0.74481       -0.74844
H          1.40653        3.49661        1.62396
H          0.17932        2.43433        0.95784
H          2.38998        3.90265       -0.61428
H          0.69092        4.38792       -0.51939
H          1.13309        2.89862       -1.36227
H          4.13617        1.96220        3.47052
H          4.15702        2.79643        1.78774
