19
-1910.46
C          0.74137       -0.34925        0.04577
C          2.25823       -0.20774       -0.07152
C          2.84644       -1.36764       -0.87400
C          2.61073        1.10819       -0.72327
C          3.34220        2.06014       -0.12528
C          3.66816        3.31183       -0.76640
C          4.39869        4.26397       -0.17512
H          0.31625        0.46689        0.64087
H          0.47762       -1.29201        0.53695
H          0.25755       -0.33594       -0.93760
H          2.68116       -0.24774        0.94038
H          2.44500       -1.39768       -1.89341
H          2.61671       -2.32537       -0.39430
H          3.93677       -1.28327       -0.94399
H          2.23690        1.26433       -1.73319
H          3.71578        1.90237        0.88418
H          3.29838        3.47918       -1.77543
H          4.79290        4.15048        0.82955
H          4.61933        5.19055       -0.69546
