12
-1239.32
O          0.72316        1.03335        0.31098
N          2.01046        0.48664        0.25196
C          2.86878        1.44948        0.16600
C          4.31544        1.17675        0.08793
C          5.16679        2.20317        0.00123
C          6.61527        1.94119       -0.07688
O          7.41987        2.86138       -0.15672
H          0.15995        0.23886        0.37369
H          2.55695        2.50961        0.14768
H          4.61722        0.13608        0.10567
H          4.86538        3.24382       -0.01638
H          6.92887        0.88437       -0.05955
