15
-1602.58
C          2.43493       -0.50179       -1.40893
C          2.49590        0.06048        0.00214
C          2.89739        1.48815        0.00290
C          2.19072        2.67277        0.01336
C          3.15444        3.70965        0.00648
C          4.38225        3.09251       -0.00746
O          4.23650        1.74291       -0.00926
H          2.13643       -1.55444       -1.38509
H          3.40941       -0.43552       -1.90386
H          1.70956        0.04380       -2.02130
H          3.20536       -0.52434        0.59964
H          1.51462       -0.04619        0.47947
H          1.11494        2.77283        0.02409
H          2.97686        4.77575        0.01095
H          5.40294        3.45120       -0.01642
