13
-1211.08
C          0.97545        0.07851        0.06295
C          2.47665       -0.08245       -0.03008
O          3.16031        0.90023        0.78206
C          4.19615        0.01515        1.25394
S          3.22647       -1.39375        0.87364
O          2.43307       -1.84180        2.00229
O          3.92761       -2.32058        0.00538
H          0.46870       -0.74353       -0.45372
H          0.65951        1.01447       -0.40841
H          0.62996        0.09241        1.10075
H          2.82854       -0.03992       -1.06698
H          5.11659        0.10975        0.67051
H          4.39723        0.14624        2.31916
