11
-1182.23
O          1.96523       -0.66486       -0.74537
C          2.27218        0.31082       -0.06264
C          1.74982        0.41492        1.29807
N          1.36012        0.54405        2.38691
N          3.10753        1.31928       -0.55861
C          4.10136        1.97974        0.23634
C          2.91393        2.71148       -0.27549
H          5.04953        2.09549       -0.27250
H          4.15321        1.71232        1.28312
H          2.11252        2.96979        0.40349
H          3.02201        3.34479       -1.14646
