11
-1107.23
O          0.89757        0.57447       -0.72040
N          2.27036        0.46623       -0.97037
C          2.91631        1.05952       -0.01739
C          4.41891        1.10056        0.00000
C          4.90092        2.46173        0.00000
C          5.29821        3.58363        0.00000
H          0.50738        0.12588       -1.49414
H          2.38985        1.54143        0.82641
H          4.80770        0.54766       -0.86150
H          4.74770        0.58112        0.90636
H          5.65432        4.58843       -0.00449
