13
-1372.16
C          1.05146        1.10834       -0.45465
O         -0.14296        1.57371        0.16714
C         -1.25885        0.80777        0.00473
C         -1.37490       -0.49976       -0.26454
O         -0.41759       -1.47622       -0.36586
C          0.84899       -1.30079        0.12536
C          1.55494       -0.16614        0.12983
H          1.80832        1.88522       -0.29887
H          0.91208        1.02665       -1.54005
H         -2.13662        1.42686        0.15374
H         -2.34846       -0.95960       -0.39313
H          1.24232       -2.24271        0.48694
H          2.56559       -0.17065        0.52401
