18
-1786.09
C          0.93204        0.02629       -0.39913
N          2.28236       -0.00245        0.15379
C          3.05777        1.19312       -0.21478
C          3.51252        1.24841       -1.68570
C          4.01178       -0.07604       -2.17829
C          3.77651       -1.19841       -1.48668
C          2.99845       -1.23719       -0.19983
H          0.40427        0.92695       -0.06532
H          0.34982       -0.82213       -0.02105
H          0.91064       -0.00245       -1.49274
H          3.94652        1.22953        0.42932
H          2.49200        2.10213        0.02463
H          4.31056        1.99350       -1.78112
H          2.68616        1.57157       -2.32910
H          4.58008       -0.10367       -3.10378
H          4.17275       -2.14315       -1.84708
H          2.30326       -2.08577       -0.23141
H          3.70466       -1.46467        0.60822
