15
-1562.73
C          3.16445       -0.41113        0.02321
C          4.35267        0.07274       -0.34370
O          4.76158        1.33700        0.00331
C          5.86730        1.91224       -0.60406
C          6.14918        1.78999       -1.91120
C          6.67021        2.75999        0.25811
C          6.48008        2.93747        1.57342
H          2.86383       -1.41654       -0.24834
H          2.47274        0.19337        0.60023
H          5.07391       -0.50438       -0.90588
H          5.51774        1.20966       -2.57490
H          7.00377        2.28488       -2.36100
H          7.49522        3.29229       -0.21203
H          5.68073        2.43929        2.11307
H          7.13026        3.59402        2.14164
