8
-810.17
O          0.96224        0.07537        0.00000
N          2.35790       -0.04830       -0.00000
C          2.87944        1.12748        0.00000
C          4.31362        1.09251        0.00000
C          5.51484        1.06944        0.00000
H          0.67135       -0.85637       -0.00000
H          2.33646        2.08483        0.00000
H          6.57959        1.03846       -0.00000
