15
-1532.01
C          1.09920       -0.55155        0.46716
C          2.30972        0.01141       -0.27309
C          3.04835       -1.09171       -1.02169
C          1.87936        1.09057       -1.24942
O          0.77284        1.17361       -1.76842
C          2.91317        2.12245       -1.64022
O          4.03071        2.12958       -1.15102
H          0.55746        0.24624        0.98797
H          1.40870       -1.29222        1.21248
H          0.39511       -1.03509       -0.21950
H          2.97286        0.46233        0.47301
H          2.40940       -1.55095       -1.78456
H          3.37706       -1.87841       -0.33400
H          3.93481       -0.69919       -1.53169
H          2.56349        2.84993       -2.39018
