17
-1644.06
C          1.05181       -0.06133        0.00891
C          2.54211       -0.03971       -0.01770
C          3.32464       -0.70038       -1.12508
O          2.56822       -1.30422       -2.18244
C          3.27561        0.80491       -1.03180
C          4.49081        1.57007       -0.63345
O          5.26963        1.83159       -1.79077
H          0.67951        0.71611        0.68392
H          0.69568       -1.02881        0.37615
H          0.61180        0.11403       -0.97791
H          2.95102       -0.12061        0.98392
H          4.24082       -1.20597       -0.83366
H          2.09521       -0.64905       -2.72323
H          2.68626        1.35661       -1.75497
H          5.11016        1.03063        0.09075
H          4.20485        2.52898       -0.19098
H          5.50142        0.96981       -2.17767
