17
-1719.99
C          1.00201        1.74027       -1.38879
C          2.22260        1.41581       -0.58893
C          3.47653        1.61616       -1.02204
C          4.70873        1.28196       -0.22047
C          5.58669        0.27820       -0.95993
C          5.44494        2.58349        0.05244
O          6.53686        2.88403       -0.42163
H          0.40830        0.83457       -1.54547
H          1.24899        2.16037       -2.36893
H          0.38634        2.46714       -0.85057
H          2.04647        0.98428        0.39495
H          3.64158        2.04278       -2.01216
H          4.44157        0.86100        0.75685
H          5.90881        0.66208       -1.93444
H          5.05063       -0.66213       -1.12712
H          6.48919        0.05421       -0.38126
H          4.92563        3.27940        0.73551
