15
-1543.15
C          3.01938       -0.55156        1.16005
C          2.65294        0.24457       -0.08442
C          2.86341        1.72642        0.09851
C          1.83609        2.59045        0.18520
C          4.27629        2.19093        0.05444
O          4.51510        3.29327        0.79208
O          5.15486        1.59961       -0.55185
H          2.83588       -1.61721        0.99092
H          2.41858       -0.23795        2.02044
H          4.07646       -0.42961        1.41791
H          1.60472        0.03748       -0.33499
H          3.23961       -0.11533       -0.93827
H          0.80876        2.23242        0.17334
H          1.96437        3.66800        0.22074
H          3.76438        3.56177        1.35199
