13
-1263.4
C          1.09171       -0.29089        0.17840
N          2.52947       -0.08799        0.11228
C          2.94509        1.10604       -0.09302
N          2.27119        2.29185       -0.27612
O          2.93173        3.42985        0.20783
C          4.39043        1.10835       -0.15937
C          5.59097        1.11071       -0.21737
H          0.88470       -1.36208        0.26404
H          0.58916        0.06791       -0.72621
H          0.66225        0.19971        1.05794
H          1.30145        2.25662        0.02399
H          3.62854        3.59088       -0.45871
H          6.65520        1.09449       -0.26301
