17
-1649.04
C          4.64190        1.04168       -1.92685
C          5.86082        1.59679       -1.21297
O          5.81863        3.02001       -1.31021
C          6.79076        3.74557       -0.64841
C          7.82517        3.23431        0.03794
C          6.57158        5.23851       -0.73975
O          5.18668        5.53417       -0.58221
H          4.63101       -0.05159       -1.88885
H          4.62837        1.36027       -2.97469
H          3.72219        1.41965       -1.46741
H          6.76922        1.21490       -1.69221
H          5.83149        1.28456       -0.16295
H          8.01241        2.17142        0.12875
H          8.53651        3.88629        0.53785
H          6.88872        5.60370       -1.72207
H          7.12231        5.78710        0.03108
H          4.71804        4.78358       -0.99418
