17
-1606.5
C          2.87644        3.94735        1.07526
O          4.11292        3.24314        1.10227
C          4.35276        2.56298       -0.13587
C          5.67630        1.81722       -0.05156
C          6.82306        2.80120       -0.06701
N          7.18293        3.41175        1.09343
N          7.45040        3.10658       -1.15634
H          2.76312        4.47837        2.02360
H          2.04327        3.24775        0.96327
H          2.86785        4.67845        0.26183
H          4.36531        3.29024       -0.95678
H          3.54195        1.84528       -0.30706
H          5.77886        1.13386       -0.90035
H          5.73255        1.23324        0.87393
H          6.41199        3.57611        1.73841
H          7.75200        4.23600        0.93037
H          7.07714        2.57843       -1.95072
