13
-1300.91
C          0.87654       -0.16775        0.02880
C          2.38988       -0.01806       -0.01613
C          2.80359        1.41161       -0.02721
C          3.05457        2.28587        1.01358
N          3.42713        3.56537        0.63932
N          3.46990        3.69455       -0.67639
S          3.06477        2.28392       -1.48215
H          0.60163       -1.22692        0.05092
H          0.40572        0.28673       -0.84900
H          0.45713        0.31043        0.92046
H          2.78259       -0.54060       -0.89695
H          2.82598       -0.51474        0.85948
H          2.98250        2.05058        2.06682
