14
-1401.11
C          0.91708       -0.00188       -0.37358
C          2.39777        0.01708       -0.10402
C          3.06629       -1.12530        0.13466
C          3.04400        1.34193       -0.14652
C          2.84864        2.27984        1.02021
O          4.12665        1.70715        0.72832
H          0.70393        0.44153       -1.35181
H          0.38324        0.57254        0.39081
H          0.50870       -1.01817       -0.37261
H          2.57074       -2.08978        0.15342
H          4.13600       -1.11140        0.32348
H          3.07205        1.78017       -1.13962
H          2.33960        1.92547        1.90781
H          2.71299        3.33334        0.81198
