19
-1849.7
C          0.90198        0.14022       -0.25605
C          2.36353        0.26390        0.06988
C          2.71300        0.02249        1.51034
O          3.22614       -0.40424       -0.86418
C          3.32205        1.02922       -0.86045
C          2.82251        1.68181       -2.11580
C          4.63819        1.54931       -0.35768
H          0.71399       -0.00740       -1.32177
H          0.37008        1.04004        0.06757
H          0.46315       -0.71862        0.26225
H          3.78019       -0.15165        1.66926
H          2.19012       -0.86111        1.89004
H          2.41165        0.88233        2.11609
H          2.02628        1.11450       -2.60765
H          3.63191        1.78355       -2.84626
H          2.44037        2.68241       -1.89064
H          5.13119        0.86371        0.33672
H          4.49281        2.50808        0.14878
H          5.33391        1.70658       -1.18913
