17
-1744.84
C          2.10706       -0.19370       -0.05021
C          0.77388       -0.81129        0.22307
C         -0.39908       -1.37507       -0.51932
C         -1.62705       -0.50130       -0.23731
C         -1.51049        0.74317        0.28599
C         -0.14189        1.39315        0.52068
C          0.88771        0.64293       -0.26792
H          2.65423       -0.54234       -0.91916
H          2.74298        0.05383        0.79256
H          0.63194       -1.01721        1.28581
H         -0.59782       -2.39041       -0.15918
H         -0.21782       -1.43189       -1.59828
H         -2.60543       -0.92865       -0.43307
H         -2.39380        1.33114        0.51440
H          0.08759        1.41005        1.59190
H         -0.17807        2.43027        0.16967
H          0.73813        0.87421       -1.32438
