14
-1455.55
C          0.94085       -0.13197        0.00668
C          2.45515        0.01235        0.00758
C          2.88980        1.43198       -0.00029
C          3.15453        2.25167        1.07198
O          3.52548        3.48002        0.63467
N          3.51378        3.49574       -0.74936
C          3.13341        2.26848       -1.11173
H          0.66063       -1.18980        0.01145
H          0.49994        0.33313       -0.88119
H          0.49805        0.34172        0.88894
H          2.86747       -0.50233       -0.86907
H          2.86581       -0.49477        0.88970
H          3.12944        2.12747        2.14475
H          3.05107        2.03978       -2.16484
