17
-1660.8
O          2.11618       -0.26584       -1.43776
C          2.36346        0.05819       -0.07613
C          3.06292        1.40273       -0.00048
C          2.24058        2.57037       -0.50638
C          2.95072        3.74252        0.13659
O          3.46871        3.27560        1.39112
C          3.37593        1.84248        1.41605
H          1.67921       -1.13495       -1.45199
H          2.99199       -0.72657        0.35750
H          1.40629        0.07285        0.45609
H          3.99012        1.36659       -0.58804
H          1.21051        2.50816       -0.13302
H          2.20461        2.64627       -1.59718
H          3.79836        4.07474       -0.47175
H          2.28692        4.59454        0.30613
H          4.31745        1.42453        1.78454
H          2.57924        1.57522        2.11927
