13
-1387.37
C          0.96934       -0.01939       -0.00809
C          2.45025        0.06026       -0.00041
C          3.29649        1.15173        0.00380
C          4.62449        0.66478        0.01030
C          4.55659       -0.70920        0.00992
N          3.23391       -1.06808        0.00331
H          0.52199        0.97986        0.00079
H          0.60838       -0.56007        0.87293
H          0.61701       -0.54077       -0.90390
H          2.98903        2.19011        0.00223
H          5.53218        1.25336        0.01484
H          5.33373       -1.46216        0.01369
H          2.88887       -2.01909        0.00143
