23
-2191.85
C          2.21963       -0.47433       -1.12268
C          3.41275        0.27673       -0.55394
C          3.10441        1.76414       -0.37280
C          4.29697        2.50668        0.23566
C          4.10059        4.03327        0.31064
C          2.90611        4.43016        1.17944
C          5.37302        4.69301        0.84854
H          2.46423       -1.53363       -1.25052
H          1.93092       -0.07180       -2.09901
H          1.35653       -0.40397       -0.45294
H          4.26931        0.15362       -1.22702
H          3.69038       -0.16657        0.40948
H          2.22726        1.86911        0.27527
H          2.84926        2.20624       -1.34327
H          5.18952        2.29744       -0.36804
H          4.49718        2.10992        1.23904
H          3.92778        4.41412       -0.70419
H          2.98634        4.00179        2.18376
H          1.96411        4.09337        0.73756
H          2.84422        5.51892        1.27999
H          5.59162        4.36036        1.86898
H          5.26998        5.78297        0.86226
H          6.23519        4.44814        0.21955
