18
-1718.77
C          0.97107        0.06670        0.03412
C          2.48368       -0.05863        0.00964
N          3.15948        0.96132        0.84649
C          4.15532       -0.04169        1.27335
C          3.19650       -1.18211        0.83585
C          2.42833       -1.81162        1.99101
O          3.79497       -2.24455        0.05036
H          0.51195       -0.78836       -0.47208
H          0.65016        0.97309       -0.49003
H          0.57065        0.10968        1.05165
H          2.83493       -0.02670       -1.03220
H          2.58616        1.30776        1.61726
H          5.08974        0.00897        0.70103
H          4.40870       -0.00209        2.33822
H          1.98652       -1.05759        2.65134
H          3.09176       -2.43432        2.60147
H          1.61961       -2.44933        1.61849
H          4.30426       -1.79110       -0.64376
