11
-1187.29
N          1.04120       -0.05024       -0.00013
N          2.37728        0.02591       -0.00000
C          2.96943        1.18090        0.00000
C          2.22985        2.41616       -0.00002
C          1.62792        3.45586       -0.00001
C          4.40247        1.08804        0.00001
C          5.60237        1.01559        0.00000
H          0.61295       -0.96912        0.00007
H          0.43653        0.76270        0.00006
H          1.09793        4.38053       -0.00000
H          6.66472        0.94248       -0.00000
