15
-1511.16
O          2.49576       -1.33777        1.21503
C          2.14944       -0.16659        1.32875
C          2.97636        1.00358        0.86749
C          4.31251        0.60574        0.25561
C          5.29753        1.76243        0.04662
O          6.05641        1.36889        1.21621
C          5.37228        0.08924        1.24028
H          1.17985        0.09275        1.78813
H          3.12050        1.65943        1.73402
H          2.37955        1.55138        0.13146
H          4.19471       -0.02359       -0.63440
H          4.88901        2.77169        0.14668
H          5.90939        1.70072       -0.85877
H          6.01704       -0.70925        0.85972
H          5.02476       -0.16403        2.24491
