18
-1718.08
C          0.97819        0.03344        0.10557
C          2.48633       -0.06937       -0.01724
N          3.20169        0.96255        0.77298
C          4.19540       -0.05204        1.20369
C          5.49162        0.06768        0.41523
C          3.18817       -1.16902        0.81968
O          3.68548       -2.32695        0.11510
H          0.49844       -0.81404       -0.39487
H          0.61119        0.94998       -0.36825
H          0.64917        0.03480        1.15007
H          2.79092       -0.06995       -1.07268
H          2.65451        1.33812        1.54952
H          4.40471       -0.01712        2.28025
H          5.32220        0.07974       -0.66729
H          6.15322       -0.77521        0.64071
H          6.02372        0.98718        0.68270
H          2.59497       -1.49572        1.68442
H          4.14417       -1.97491       -0.66714
