17
-1701.34
O          0.88471        0.04007        0.09606
C          2.32786        0.03179        0.00198
C          3.03420        1.04160        0.96655
C          4.05228       -0.05628        1.31883
C          3.02871       -1.09543        0.83020
C          2.80769        0.12170       -1.41325
C          2.35320       -0.72813       -2.34365
H          0.68705       -0.02766        1.04423
H          2.41272        1.35121        1.81609
H          3.46256        1.94250        0.51629
H          4.96576       -0.02007        0.71484
H          4.32897       -0.12430        2.37392
H          3.45578       -1.93273        0.26936
H          2.40487       -1.50796        1.63289
H          3.52342        0.89237       -1.68114
H          1.62207       -1.49408       -2.10252
H          2.69062       -0.65975       -3.37241
