16
-1517.77
C          0.96555       -0.05712       -0.06997
C          2.48724        0.04251       -0.04747
C          3.11753       -0.81059       -1.14391
C          2.91255        1.50077       -0.16960
N          2.82232        2.15264       -1.35899
N          3.33379        2.16813        0.85485
H          0.52357        0.56390        0.71694
H          0.64144       -1.09051        0.09172
H          0.55300        0.28136       -1.02670
H          2.84182       -0.33627        0.91913
H          2.75110       -0.53122       -2.13773
H          2.88886       -1.87019       -0.98845
H          4.20686       -0.69561       -1.14803
H          2.10444        1.85647       -2.00715
H          2.89715        3.15922       -1.25218
H          3.35138        1.57590        1.69120
