15
-1417.79
O          2.21193       -0.38795       -1.36276
C          2.37105        0.06759       -0.02204
C          3.14990        1.37468       -0.03579
C          2.40040        2.63059       -0.53932
C          3.10326        3.34429        0.62394
N          3.20797        2.03005        1.30262
H          1.68163       -1.20232       -1.31866
H          2.91586       -0.69991        0.53659
H          1.37810        0.19035        0.42253
H          4.14398        1.25894       -0.49063
H          1.30923        2.58825       -0.44144
H          2.66002        2.97655       -1.54271
H          4.07366        3.78279        0.36260
H          2.50521        4.08882        1.15558
H          4.08245        1.88693        1.80579
