10
-1113.93
O          2.64055       -1.17548        0.08838
C          2.14350       -0.05642       -0.00556
C          2.85268        1.19480        0.01594
C          2.37734        2.48720       -0.08269
C          3.45934        3.41199       -0.01099
N          4.67906        2.90183        0.13119
S          4.55033        1.24582        0.18375
H          1.04938        0.03835       -0.11876
H          1.33692        2.76038       -0.19757
H          3.37829        4.49079       -0.06173
