20
-1930.18
C          2.13650       -0.26876       -1.52254
N          2.34584        0.12015       -0.13410
C          3.03876        1.39892       -0.01586
C          2.22029        2.61045       -0.45665
C          2.93660        3.79204        0.19311
C          3.65173        3.22903        1.42224
C          3.33280        1.73732        1.44620
H          1.65403       -1.25082       -1.55385
H          3.08356       -0.34388       -2.06656
H          1.47653        0.43155       -2.04303
H          2.89232       -0.60305        0.33388
H          3.98927        1.36703       -0.56610
H          1.19346        2.54976       -0.07571
H          2.17005        2.71719       -1.54453
H          3.67142        4.22023       -0.49951
H          2.23312        4.58790        0.45831
H          4.73195        3.38757        1.32836
H          3.32595        3.72053        2.34387
H          4.15887        1.14699        1.85695
H          2.45049        1.56211        2.07607
