19
-1779.04
C          3.55585        5.02593       -2.79112
C          3.80185        4.65129       -1.33852
N          4.85515        3.63794       -1.24744
N          5.16250        3.23440        0.00723
C          6.15798        2.40840        0.05251
C          6.62883        1.85073        1.36698
C          6.40239        0.35191        1.40387
H          2.77241        5.78738       -2.85578
H          3.23149        4.15864       -3.37484
H          4.46100        5.43245       -3.25325
H          2.87407        4.26794       -0.89756
H          4.09759        5.54577       -0.77804
H          4.60814        2.84758       -1.84737
H          6.69984        2.07806       -0.85339
H          6.09505        2.33629        2.19045
H          7.69598        2.07187        1.46555
H          5.33939        0.11301        1.29504
H          6.75339       -0.06461        2.35305
H          6.93968       -0.14758        0.59051
