16
-1607.77
C         -1.02534       -0.00002       -1.19321
C         -0.52866        1.01480       -0.06234
C         -1.35205       -0.00008        0.86252
C         -0.52927       -1.01464       -0.06240
C          0.97472       -0.79156        0.23101
N          1.85712       -0.00042       -0.58693
C          0.97388        0.79156        0.23112
H         -2.09688        0.00010       -1.42415
H         -0.46999        0.00007       -2.13414
H         -0.87680        2.04663       -0.11544
H         -1.09037       -0.00002        1.92454
H         -2.44261        0.00006        0.75980
H         -0.87704       -2.04661       -0.11557
H          1.31813       -1.28114        1.13230
H          1.58281       -0.00003       -1.56821
H          1.31846        1.28081        1.13252
