13
-1374.26
C          0.89701       -1.25574        0.33485
C         -0.48149       -1.53438       -0.17120
C         -1.44980       -0.62130       -0.27302
C         -1.25602        0.74454        0.25552
N         -0.21472        1.50367        0.30811
N          0.97078        1.18042       -0.33754
C          1.47350       -0.01170       -0.28090
H          1.54316       -2.08069        0.00877
H          0.94576       -1.21578        1.42565
H         -0.69674       -2.55777       -0.47114
H         -2.44617       -0.87439       -0.61753
H         -2.17531        1.16751        0.69708
H          2.47254       -0.13295       -0.73562
