16
-1561.99
C          0.95211       -0.11030        0.02646
C          2.47626       -0.03724       -0.02079
O          2.88585       -0.73213       -1.20826
C          3.01964        1.42624       -0.00355
N          2.54126        2.23145        1.12057
C          4.49497        1.42654        0.03762
C          5.69670        1.42967        0.07124
H          0.55405        0.26629        0.97282
H          0.61619       -1.14623       -0.09481
H          0.50856        0.46176       -0.79589
H          2.88280       -0.59948        0.82870
H          2.68994       -0.16650       -1.97475
H          2.71232        1.92223       -0.93270
H          2.82663        1.78760        1.99240
H          1.52541        2.26269        1.12601
H          6.76119        1.43340        0.10198
