17
-1779.66
C          1.06723       -0.12778       -0.04825
C          2.52172        0.17066        0.05936
C          3.11151        1.34732       -0.22610
C          4.60175        1.23794       -0.02641
C          4.83340       -0.19393        0.41251
C          4.52457       -1.36503       -0.48556
C          3.47817       -0.87320        0.47620
H          0.90849       -1.13312       -0.45584
H          0.56117        0.58109       -0.70827
H          0.59626       -0.07883        0.93975
H          2.60856        2.24302       -0.55851
H          5.13892        1.45332       -0.95434
H          4.92977        1.93548        0.75015
H          5.52728       -0.31264        1.23103
H          5.00491       -2.31124       -0.26642
H          4.38365       -1.18349       -1.54581
H          3.23786       -1.45623        1.35536
