16
-1624.03
C          0.96723        0.00090       -0.00016
C          2.46758       -0.01463        0.00112
C          3.15075       -1.16946        0.00871
C          3.18500        1.21763        0.00000
C          3.78008        2.24834        0.00000
C          4.50208        3.49888        0.00000
N          3.57329        4.61900       -0.04807
H          0.57574        1.02331        0.04260
H          0.57359       -0.53935        0.86743
H          0.57827       -0.46495       -0.91209
H          2.63848       -2.12613        0.01191
H          4.23655       -1.18874        0.01269
H          5.17678        3.55099       -0.86106
H          5.11760        3.58468        0.90127
H          3.01467        4.54546       -0.89663
H          4.10135        5.48513       -0.12451
