13
-1306.5
C          1.69509       -0.45435        0.17438
O          0.87234       -1.64389        0.02916
C         -0.17953       -0.86294       -0.59679
C         -1.40587       -0.54549        0.27759
N         -1.35758        0.62781        0.82160
N         -0.14165        1.17635        0.50335
C          0.64536        0.42649       -0.50085
H          2.62932       -0.56064       -0.38708
H          1.92641       -0.24633        1.22376
H         -0.40574       -1.21582       -1.60596
H         -2.24648       -1.24812        0.36271
H         -0.18139        2.19311        0.42881
H          0.89245        0.93295       -1.43430
