15
-1479.3
C          0.99946       -0.04814        0.10765
C          2.52000        0.00000        0.00000
C          3.04077       -0.71902       -1.23067
N          2.28536       -1.00896       -2.24585
N          2.95589       -1.61938       -3.24967
C          3.00202        1.36117        0.00000
C          3.39930        2.48307        0.00000
H          0.65882        0.41248        1.04174
H          0.63866       -1.08228        0.09065
H          0.51643        0.48666       -0.71855
H          2.94167       -0.53353        0.86089
H          4.12157       -0.96104       -1.22600
H          3.57960       -0.96105       -3.72520
H          2.28910       -1.91165       -3.96876
H          3.74970        3.48980       -0.00142
