15
-1593.63
O          1.55678       -0.39801       -0.79558
C          1.96235        0.36806        0.07162
C          3.22958        1.19469       -0.03109
C          3.64521        1.47188       -1.48055
C          3.35964        2.92792       -1.65559
C          3.02675        3.51984       -0.50597
C          3.03348        2.56293        0.63835
H          1.45407        0.40121        1.05158
H          4.00101        0.62231        0.49793
H          3.09747        0.87969       -2.21874
H          4.71675        1.29127       -1.61995
H          3.43809        3.43564       -2.60804
H          2.80151        4.57325       -0.40317
H          3.86999        2.79563        1.30647
H          2.10226        2.63534        1.20898
