17
-1612.35
C          3.03084       -1.17071       -0.38647
C          2.37672        0.10143        0.12784
C          3.36004        1.22943        0.19933
C          3.62390        2.09418       -1.01379
N          2.85674        2.59823        0.12119
C          3.60189        3.53744        0.95328
H          2.30349       -1.98735       -0.41984
H          3.85913       -1.47546        0.26130
H          3.43072       -1.02553       -1.39529
H          1.97074       -0.08086        1.12980
H          1.52867        0.35667       -0.51990
H          4.17904        1.02373        0.87930
H          3.05591        1.91003       -1.91779
H          4.62691        2.47082       -1.17307
H          3.19008        3.53533        1.96822
H          3.49092        4.55063        0.55254
H          4.67565        3.32293        1.02748
