17
-1789.07
C          0.89986        0.05271        0.08142
C          2.42360        0.01445        0.10344
C          3.01878        1.17117       -0.66068
C          3.78839        0.71328       -1.66045
C          3.78157       -0.72746       -1.64925
C          3.00546       -1.16539       -0.64379
C          2.74543       -2.57269       -0.24907
H          0.52786        0.97208        0.54754
H          0.48014       -0.79358        0.63523
H          0.50402        0.01280       -0.94041
H          2.78861        0.02678        1.13670
H          2.85018        2.21170       -0.42644
H          4.34168        1.31302       -2.36716
H          4.33683       -1.33763       -2.34507
H          3.29878       -3.27462       -0.88025
H          1.68068       -2.80929       -0.33900
H          3.05243       -2.73966        0.78863
