9
-1014.79
C          0.95088        0.00867       -0.00067
C          2.15152        0.02973       -0.00054
C          3.57789        0.05132        0.00003
N          4.18117        1.24076        0.00191
S          5.81980        0.87602        0.00246
N          5.75157       -0.80229        0.00036
C          4.44447       -1.07950       -0.00083
H         -0.11396        0.00141       -0.00067
H          4.14688       -2.11935       -0.00228
