16
-1685.56
C          0.96780       -0.02799       -0.00781
C          2.44692        0.07516       -0.00032
C          3.27489        1.17880        0.00418
C          4.61030        0.71216        0.01067
C          4.57037       -0.66767        0.00998
C          5.67143       -1.66087        0.01502
N          3.24847       -1.04060        0.00303
H          0.50466        0.96387        0.00096
H          0.61569       -0.57426        0.87313
H          0.62372       -0.55502       -0.90351
H          2.95246        2.21216        0.00295
H          5.50658        1.31842        0.01535
H          5.29122       -2.68769        0.02343
H          6.30148       -1.52605        0.90028
H          6.29773       -1.53893       -0.87477
H          2.91294       -1.99514        0.00083
