18
-1658.1
C          1.56613        0.09303        0.79313
O          2.81113        0.22072        0.11671
C          3.35702        1.54155        0.27485
C          4.70537        1.57486       -0.45256
O          4.49715        1.29758       -1.84974
C          5.43260        2.92036       -0.30903
N          4.67471        4.02979       -0.89954
H          1.18935       -0.92024        0.63087
H          0.83766        0.80554        0.39480
H          1.69859        0.24870        1.86803
H          3.48899        1.76021        1.34010
H          2.65509        2.25626       -0.16900
H          5.34753        0.77223       -0.07138
H          3.87762        0.54108       -1.85955
H          6.39541        2.85811       -0.82883
H          5.62977        3.13783        0.74545
H          4.40626        3.73391       -1.84379
H          5.29745        4.82638       -1.02738
