16
-1606.54
C          2.47223       -0.33256        1.72359
C          2.20766        0.31481        0.37205
N          3.02101        1.51392        0.16620
C          2.62168        2.76932        0.59843
C          1.48630        3.06352        1.24043
C          4.26498        1.34258       -0.44010
O          4.74603        0.28290       -0.82607
H          1.86450       -1.23559        1.83705
H          2.22889        0.34764        2.54584
H          3.52544       -0.61451        1.82496
H          1.14585        0.55546        0.25380
H          2.43830       -0.41278       -0.41554
H          3.31502        3.58318        0.38913
H          0.73686        2.32731        1.50354
H          1.27944        4.08889        1.53323
H          4.82138        2.28870       -0.55122
