15
-1597.
C          1.00000        0.00000        0.00000
C          2.44400        0.00000        0.00000
C          3.63416        0.00000        0.00000
C          5.07816        0.00000        0.00000
C          5.58555        1.43282        0.00000
C          7.02955        1.43282       -0.00000
C          8.21971        1.43282       -0.00000
H          0.60602        1.02089        0.01166
H          0.60593       -0.52049        0.87827
H          0.60593       -0.50029       -0.88993
H          5.45379       -0.53796       -0.87942
H          5.45379       -0.53796        0.87942
H          5.20977        1.97073        0.87939
H          5.20977        1.97073       -0.87939
H          9.28460        1.43489        0.00000
