15
-1461.01
O          0.94390        0.09168       -0.25079
C          2.33268        0.02527        0.07062
C          3.01450        1.33004       -0.31190
C          3.57075        1.23771       -1.72315
N          4.42005        0.05244       -1.78005
N          3.87921       -1.16200       -1.51544
C          2.91305       -1.17942       -0.64598
H          0.51828        0.64357        0.42877
H          2.41035       -0.15609        1.14817
H          2.32237        2.17750       -0.23871
H          3.84115        1.52114        0.38354
H          4.16484        2.12962       -1.94716
H          2.76817        1.17260       -2.46618
H          4.93237        0.01970       -2.66419
H          2.46004       -2.15552       -0.40105
