17
-1663.27
C          1.03264        0.20419       -1.35146
C          2.48175        0.42440       -1.06228
C          2.96452        1.51886       -0.46215
N          4.27672        1.77348       -0.17176
C          4.82614        2.86284        0.43130
N          6.08660        2.98696        0.65230
C          6.44860        4.23655        1.31504
H          0.88049        0.09296       -2.42921
H          0.40972        1.03360       -1.00197
H          0.68964       -0.71069       -0.85885
H          3.15885       -0.36881       -1.36904
H          2.29129        2.31688       -0.15370
H          4.94688        1.05903       -0.43554
H          4.08424        3.63418        0.70865
H          7.34551        4.07286        1.92047
H          5.66658        4.60925        1.98632
H          6.67829        5.00554        0.57103
