14
-1411.7
O          0.88371        0.06755        0.00329
C          2.32805        0.00952       -0.00014
C          3.06876        1.00579        0.91721
N          4.03469       -0.06527        1.26258
C          3.00580       -1.06972        0.89148
C          3.60150       -2.18745        0.19376
C          4.09462       -3.11896       -0.38226
H          0.60543       -0.73032       -0.47903
H          2.70295        0.03843       -1.03275
H          2.48334        1.35939        1.77406
H          3.51116        1.87080        0.41459
H          4.85209       -0.08381        0.65203
H          2.38762       -1.37718        1.74514
H          4.53542       -3.94956       -0.88533
