15
-1580.39
C          1.11613        1.18356       -0.29354
C         -0.19263        1.56387        0.38927
C         -1.36856        0.78251       -0.09378
C         -1.44228       -0.55247       -0.14920
O         -0.52003       -1.48840        0.22749
C          0.83504       -1.31053        0.18334
C          1.57573       -0.22111       -0.06289
H          1.89466        1.85587        0.08950
H          1.05652        1.36505       -1.37374
H         -0.10988        1.46342        1.47885
H         -0.38360        2.62677        0.19468
H         -2.24088        1.35620       -0.39739
H         -2.34669       -1.06002       -0.46631
H          1.30346       -2.27351        0.36342
H          2.65572       -0.35761       -0.09135
