8
-967.43
N          1.00000        0.00000        0.00000
C          2.15101        0.00000        0.00000
C          3.55701        0.00000        0.00000
C          4.21403        1.13799        0.00000
C          5.62003        1.13799        0.00000
N          6.77104        1.13799        0.00000
H          4.05725       -0.96321       -0.00000
H          3.71379        2.10120       -0.00000
