13
-1227.74
O          3.63261       -0.84576       -0.56245
S          2.60311        0.17920        0.13706
O          1.52018        0.42858       -0.78339
O          2.40222       -0.30257        1.48238
C          3.70686        1.60564        0.21360
C          3.77106        2.43466       -1.04088
C          3.00946        2.93853        0.15656
H          3.50401       -1.72623       -0.14990
H          4.59302        1.50545        0.82165
H          3.20297        2.12562       -1.91194
H          4.71369        2.91206       -1.28238
H          3.43738        3.75707        0.72381
H          1.92692        2.97084        0.09042
