12
-1257.51
C          0.98830        0.00813       -0.00781
N          2.42796        0.02470       -0.00103
C          3.23230        1.12745        0.00323
C          4.51372        0.62802        0.00915
N          4.50252       -0.74314        0.00857
C          3.23204       -1.07798        0.00237
H          0.61024        1.03346        0.00234
H          0.64370       -0.52383        0.88257
H          0.65234       -0.50327       -0.91339
H          2.84882        2.13821        0.00175
H          5.44369        1.18224        0.01380
H          2.84729       -2.08986        0.00012
