12
-1290.35
N          2.27632       -1.41105        0.75295
C          3.58621       -1.09591        0.51628
O          4.47128       -1.92937        0.40517
C          3.86099        0.41195        0.40016
O          2.92729        1.20217        0.48736
C          5.27448        0.81982        0.19025
C          5.60707        2.11195        0.07963
H          1.58634       -0.67050        0.82552
H          1.99872       -2.37798        0.83783
H          6.01983        0.03440        0.13181
H          4.86174        2.90098        0.13786
H          6.63984        2.40806       -0.07254
