17
-1721.81
C          0.94029        0.00294       -0.06803
C          2.43515        0.00398        0.00965
C          3.15522        1.14027       -0.00039
C          4.65032        1.16167        0.13459
O          5.17473       -0.08653        0.59722
C          4.64125       -1.18692       -0.14015
C          3.13874       -1.32359        0.11804
H          0.54583       -1.01554       -0.14830
H          0.59560        0.55908       -0.94703
H          0.50891        0.45607        0.83087
H          2.66074        2.10305       -0.09032
H          5.11574        1.41728       -0.82422
H          4.94215        1.92459        0.86378
H          5.15792       -2.09555        0.18537
H          4.85586       -1.05099       -1.20780
H          2.97343       -1.71597        1.12923
H          2.72124       -2.04426       -0.59454
