14
-1532.72
N          1.00000        0.00000        0.00000
C          2.15101        0.00000        0.00000
C          3.59501        0.00000        0.00000
C          4.17705       -1.26482        0.65010
C          4.50094       -0.89201        2.09962
C          4.63687        0.59285        2.03320
C          4.13782        1.08148        0.89095
H          3.98380        0.10901       -1.01798
H          5.11044       -1.53769        0.13824
H          3.51549       -2.13668        0.59367
H          5.42473       -1.37297        2.43378
H          3.68824       -1.16902        2.77926
H          5.04960        1.19299        2.83303
H          4.10162        2.13341        0.63993
