16
-1569.8
C          0.95459        0.00416       -0.03464
C          2.47386        0.00373        0.12904
C          3.08038        1.32752       -0.32830
C          3.70231        1.17617       -1.69976
O          4.64022        0.10580       -1.62530
N          4.01979       -1.15061       -1.47724
C          3.03576       -1.17605       -0.63141
H          0.50003        0.81291        0.54734
H          0.52380       -0.94080        0.31519
H          0.66525        0.12960       -1.08369
H          2.69383       -0.15730        1.19108
H          2.34986        2.14370       -0.32011
H          3.87003        1.60095        0.38329
H          4.24722        2.08491       -1.97375
H          2.96016        0.97590       -2.48108
H          2.56442       -2.15528       -0.43934
