15
-1580.61
C          0.96118        0.14315       -0.14850
C          2.25582       -0.00753        0.15329
C          2.94784       -1.34979        0.13448
C          4.43893       -1.24627        0.02836
C          5.05204       -0.05771       -0.04309
C          4.27810        1.22485       -0.00225
O          2.97665        1.09317        0.58517
H          0.48487        1.11653       -0.08167
H          0.34376       -0.70003       -0.44668
H          2.58118       -1.94785       -0.70878
H          2.70249       -1.88746        1.05736
H          5.01355       -2.16660        0.00160
H          6.13088        0.00117       -0.14266
H          4.82448        1.95159        0.60804
H          4.18353        1.64447       -1.01069
