19
-1791.15
C          1.13497       -0.81060        0.01397
C          2.51052       -0.24072       -0.12294
C          2.88156        1.05205        0.00417
C          1.93223        2.18657        0.28349
N          1.86459        2.44294        1.71908
C          4.33022        1.44858       -0.13379
N          4.57970        2.00705       -1.45831
H          1.15470       -1.64388        0.72357
H          0.79443       -1.19438       -0.95252
H          0.39940       -0.09034        0.37787
H          3.27979       -0.98147       -0.33892
H          0.92875        1.97700       -0.10036
H          2.26190        3.09610       -0.23123
H          1.48114        1.61679        2.17407
H          1.19566        3.19291        1.88328
H          4.99151        0.58747        0.02090
H          4.59639        2.18393        0.63386
H          4.41319        1.27875       -2.15054
H          5.56668        2.24494       -1.53040
