15
-1484.14
C          1.86408       -0.07973        1.59696
C          2.76388       -0.20170        0.61695
C          3.20782        0.98642       -0.14164
N          4.07942        0.88593       -1.09315
N          4.34499        2.08295       -1.65426
C          4.64699        1.83064       -3.06450
C          5.74702        2.05074       -2.07487
H          1.53876       -0.95348        2.15314
H          1.43042        0.87676        1.87254
H          3.19900       -1.15454        0.33864
H          2.75504        1.95273        0.15121
H          4.39983        2.63626       -3.74297
H          4.48639        0.83248       -3.45342
H          6.35441        1.20633       -1.77269
H          6.25284        3.00706       -2.07584
