17
-1638.11
C          4.76845       -1.72351       -0.32578
N          4.22569       -0.47357        0.19707
N          4.69767        0.64961       -0.39645
C          4.49525        1.71853        0.30775
C          4.91968        3.07083       -0.14246
C          5.56430        3.19004       -1.48567
C          4.70108        4.10435        0.68411
H          4.34675       -2.56939        0.22562
H          5.85628       -1.75190       -0.20490
H          4.52585       -1.84555       -1.38622
H          3.20642       -0.51429        0.11336
H          3.99764        1.67325        1.29518
H          4.88618        2.83841       -2.27010
H          6.48384        2.59719       -1.52620
H          5.82829        4.22742       -1.71772
H          4.23426        3.98286        1.65660
H          4.99440        5.11228        0.40614
