17
-1715.95
C          0.94580        0.53409        0.50679
C          2.37946        0.57467       -0.01905
C          2.47327       -0.14468       -1.37098
C          3.88990       -0.33176       -1.84257
C          4.36614        0.17056       -2.98906
C          2.86165        2.00870       -0.15686
O          2.18327        2.99926        0.09927
H          0.86929        1.04228        1.47431
H          0.60809       -0.49857        0.64233
H          0.25363        1.03076       -0.18314
H          3.03340        0.08810        0.71531
H          1.89021        0.40130       -2.12396
H          2.02240       -1.14140       -1.28621
H          4.54962       -0.92833       -1.21498
H          3.74553        0.75768       -3.66011
H          5.39506       -0.00490       -3.28999
H          3.91210        2.12805       -0.47443
