16
-1559.93
C          1.02731        0.05732        0.23167
C          2.44415        0.26109       -0.29902
C          2.73173       -0.30477       -1.66956
C          1.86688       -0.90651       -2.49852
C          2.71446        1.74922       -0.35484
N          3.52232        2.30966        0.48872
O          3.55006        3.68716        0.23958
H          0.92678        0.49449        1.23195
H          0.78071       -1.00714        0.30685
H          0.27966        0.54296       -0.40641
H          3.14622       -0.19627        0.40903
H          3.76797       -0.21467       -1.99931
H          0.82009       -1.04969       -2.25173
H          2.19878       -1.28257       -3.46246
H          2.16524        2.33923       -1.11171
H          4.14255        4.01457        0.94255
