11
-1158.39
C          2.63652       -1.13573        0.39846
C          2.16450        0.09383        0.14735
C          2.95156        1.28251        0.08777
C          2.44369        2.54082       -0.17286
S          3.77030        3.63179       -0.13852
N          4.87770        2.42401        0.20298
N          4.32000        1.22720        0.29755
H          1.97142       -1.99255        0.42700
H          3.69245       -1.31642        0.58071
H          1.09551        0.19578       -0.02520
H          1.43243        2.85991       -0.36896
