15
-1519.72
C          1.00224        0.01865       -0.09333
C          2.50037        0.03243        0.07907
N          3.09657        1.18872        0.12208
N          4.43625        1.15630        0.34739
C          5.25458        0.03509       -0.11148
C          4.51917       -1.26061        0.03099
C          3.18748       -1.28744        0.16831
H          0.61252       -1.00108       -0.14760
H          0.73877        0.54726       -1.01420
H          0.53861        0.52932        0.75600
H          4.86949        2.04816        0.10794
H          6.16912        0.00290        0.48980
H          5.54362        0.17613       -1.15874
H          5.09293       -2.18010        0.02583
H          2.61234       -2.19544        0.27230
