17
-1635.13
C          1.04258        0.49950       -1.08284
C          2.55193        0.55801       -1.19538
O          3.06850        1.22183       -0.04559
C          4.50765        1.36376        0.00179
C          5.14568        2.46445       -0.85652
O          5.89453        2.97096        0.27678
C          5.07800        2.17433        1.17336
H          0.60570       -0.00359       -1.94997
H          0.62184        1.50829       -1.01029
H          0.74385       -0.03596       -0.17575
H          2.84200        1.10856       -2.09624
H          2.96596       -0.45427       -1.24668
H          5.00378        0.39116       -0.10495
H          4.46054        3.22194       -1.24990
H          5.80394        2.10897       -1.65388
H          5.68740        1.60498        1.88045
H          4.36135        2.79743        1.71741
