13
-1451.79
O          1.83151       -0.74613       -0.77730
C          2.00998        0.13497        0.06136
C          3.18419        1.10507        0.06771
C          2.75110        2.45673        0.57606
C          2.94811        3.38519       -0.37507
C          3.50174        2.75709       -1.54744
C          3.65173        1.44420       -1.32097
H          1.35061        0.18827        0.94577
H          3.98874        0.69713        0.68660
H          2.35899        2.65117        1.56331
H          2.73925        4.44177       -0.29417
H          3.74650        3.27967       -2.46035
H          4.03408        0.72093       -2.02706
