12
-1215.49
C          0.97792        0.07457       -0.15826
C          2.41444        0.30729        0.14527
O          3.30684       -0.65962       -0.42006
C          3.38828        0.67978       -0.94174
C          4.63369        1.39038       -0.60465
O          4.69346        2.61207       -0.65722
H          0.41614        1.00795       -0.05493
H          0.55840       -0.65549        0.54077
H          0.82771       -0.30266       -1.17525
H          2.59097        0.64322        1.15834
H          3.00549        0.85594       -1.93892
H          5.49909        0.77128       -0.31589
