11
-1232.58
C          0.99264        0.02896       -0.00581
C          2.49168       -0.04739        0.00226
O          3.11389       -1.10094        0.00703
C          3.21496        1.20211        0.00057
C          3.82796        2.23522       -0.00013
C          4.56534        3.47111       -0.00049
O          3.97986        4.54396       -0.00101
H          0.64741        1.06602        0.00963
H          0.60305       -0.48301        0.87825
H          0.61386       -0.45404       -0.91063
H          5.66271        3.37729       -0.00020
