20
-1908.02
C          1.08373        0.09008       -0.07692
C          2.57621        0.21770        0.19711
C          3.04495        1.67350        0.40004
C          2.38785        2.31257        1.62889
N          4.50624        1.65668        0.60532
C          5.27512        1.74376       -0.63510
C          5.16651        2.92240        0.29448
H          0.83464       -0.94926       -0.31483
H          0.78454        0.71281       -0.92595
H          0.48831        0.37832        0.79409
H          3.11314       -0.22357       -0.65248
H          2.82712       -0.38900        1.07685
H          2.76026        2.26130       -0.48374
H          2.56691        1.72134        2.53353
H          1.30598        2.40542        1.49289
H          2.77198        3.32331        1.80427
H          4.74528        1.78055       -1.57910
H          6.20612        1.19125       -0.65004
H          6.02341        3.16511        0.91154
H          4.56049        3.76716       -0.00683
