17
-1686.22
C          0.98775       -2.14832       -0.73886
C          1.49475       -0.87003       -0.07940
C          2.88349       -0.51370       -0.59582
O          0.62283        0.22641       -0.41431
C         -0.50554        0.34438        0.33807
C         -1.30750        1.52083       -0.12808
O         -0.82726       -0.38611        1.26400
H         -0.00456       -2.41537       -0.36264
H          1.66403       -2.98699       -0.54786
H          0.88733       -2.01591       -1.82152
H          1.54962       -0.99569        1.00911
H          2.86702       -0.33140       -1.67601
H          3.60354       -1.30975       -0.38458
H          3.23831        0.41071       -0.12688
H         -2.25235        1.55567        0.42169
H         -1.53277        1.41912       -1.19274
H         -0.75451        2.44399        0.06211
