14
-1446.57
C          0.92990       -0.16078        0.01310
C          2.44198        0.00356        0.00593
C          2.85700        1.44158       -0.00015
N          3.02885        2.06349        1.16723
S          3.47988        3.63271        0.88462
C          3.45835        3.51844       -0.82039
C          3.09293        2.23624       -1.16962
H          0.66363       -1.22245        0.01344
H          0.47718        0.30345       -0.86958
H          0.48553        0.30202        0.90071
H          2.85588       -0.49892       -0.87656
H          2.86710       -0.50347        0.88092
H          3.70274        4.35827       -1.45425
H          2.99815        1.88686       -2.18869
