13
-1303.46
O          1.34938       -0.01958        0.88239
C          2.34361        0.10712        0.18064
N          2.90242        1.29090       -0.18984
C          2.69495        2.61172        0.37060
C          3.86164        3.06069       -0.52048
C          4.22605        1.58066       -0.70005
H          2.89098       -0.75858       -0.22440
H          2.88266        2.65419        1.44769
H          1.72428        3.05167        0.12903
H          3.54711        3.55617       -1.44645
H          4.61948        3.67483       -0.02725
H          4.38643        1.25948       -1.73112
H          5.02432        1.21104       -0.05059
