14
-1466.25
C          1.03033       -0.02970        0.14468
C          2.35779        0.02496        0.00647
C          3.27389        1.19880       -0.01067
N          4.47143        0.79766       -0.77902
C          4.60982       -0.66811       -0.58975
C          3.21855       -1.15059       -0.25833
O          2.84997       -2.31248       -0.20019
H          0.50469       -0.98003        0.10273
H          0.44091        0.86611        0.30486
H          3.57570        1.45452        1.01142
H          2.81210        2.08106       -0.46477
H          4.27161        0.96727       -1.76654
H          4.97287       -1.13813       -1.50716
H          5.28044       -0.88173        0.24723
