13
-1350.17
O          3.23947       -0.74588       -0.77023
C          2.23329        0.02856       -0.13361
C          2.71958        1.42141       -0.07371
C          2.13336        2.58920        0.36439
C          3.11207        3.58144        0.16454
N          4.23570        3.08899       -0.35891
N          3.97196        1.77841       -0.49642
H          2.88998       -1.65213       -0.82489
H          2.06196       -0.36806        0.87107
H          1.31055       -0.03773       -0.71715
H          1.14019        2.71182        0.77108
H          3.05227        4.64028        0.37900
H          4.67787        1.16174       -0.88793
