13
-1346.82
C          1.15376       -0.03187        0.28444
C          2.41674        0.04659       -0.13300
N          3.13692        1.15669       -0.40452
C          4.37339        0.84141       -0.83572
N          5.30013        1.65369       -1.20492
C          4.47111       -0.67065       -0.81153
O          3.16206       -1.11163       -0.35086
H          0.69300       -0.99779        0.46063
H          0.55619        0.85489        0.45677
H          2.77986        2.09499       -0.33961
H          6.13842        1.13560       -1.48852
H          4.65775       -1.06658       -1.81284
H          5.23641       -1.00092       -0.10454
