15
-1525.55
C          0.93222       -0.05093        0.09429
C          2.44152        0.03061       -0.01590
C          3.19585        1.05914        0.88723
O          2.44002        1.70347        1.93478
C          4.19449       -0.03564        1.34439
C          3.23109       -1.06324        0.73007
O          3.11838       -2.26619        0.82926
H          0.54994       -0.89159       -0.49413
H          0.46941        0.86352       -0.29050
H          0.60338       -0.19059        1.12888
H          2.75077        0.09797       -1.06778
H          3.68690        1.83692        0.28970
H          2.08657        0.99533        2.50194
H          5.16853       -0.00472        0.84827
H          4.32627       -0.13553        2.42378
