15
-1476.05
N          0.87879       -0.00644       -0.23654
C          2.30369       -0.25222       -0.02640
C          3.11151       -0.84981       -1.13772
C          3.31518        0.59312       -0.76496
N          4.52001        1.01837       -0.13664
C          4.56904        1.97682        0.83478
O          5.61018        2.36044        1.34897
H          0.52813        0.68925        0.42214
H          0.33809       -0.85371       -0.06077
H          2.56593       -0.56871        0.98151
H          2.61828       -1.05991       -2.07976
H          3.87765       -1.56815       -0.87177
H          2.92862        1.32620       -1.47022
H          5.41374        0.65488       -0.44577
H          3.57858        2.36997        1.11643
