15
-1605.05
C          0.97297       -0.05779       -0.00935
C          2.43993        0.09975        0.00086
C          3.27981        1.19213        0.00727
C          4.60913        0.68508        0.01610
C          5.87179        1.45888        0.02553
C          4.47693       -0.68811        0.01437
O          3.16926       -1.04930        0.00507
H          0.47329        0.91579       -0.00158
H          0.64168       -0.61783        0.87043
H          0.65223       -0.59847       -0.90499
H          2.97190        2.22871        0.00580
H          5.67680        2.53594        0.01166
H          6.47881        1.21309       -0.85164
H          6.45395        1.23121        0.92415
H          5.18365       -1.50648        0.01881
