14
-1450.02
C          0.83603       -0.05157       -0.00639
C          2.32286       -0.01717       -0.00310
C          3.19101        1.06360       -0.00674
C          2.82371        2.50404       -0.01510
N          4.53694        0.73020       -0.00243
C          4.67086       -0.57643        0.00423
S          3.21922       -1.48261        0.00564
H          0.41378        0.95775        0.00150
H          0.45868       -0.57674        0.87700
H          0.46306       -0.56151       -0.90049
H          3.71659        3.13711       -0.00759
H          2.22500        2.75191        0.86704
H          2.24384        2.74590       -0.91137
H          5.64000       -1.05744        0.00851
