20
-1935.64
C          0.97152        0.06501        0.11543
C          2.49347        0.02232       -0.04151
C          2.99452       -1.33786       -0.54649
C          2.70044       -1.55784       -2.02868
C          3.19485       -0.37432       -2.85247
C          2.66352        0.94656       -2.30293
N          2.98382        1.12553       -0.88303
H          0.64808        1.03817        0.50338
H          0.64158       -0.69866        0.82885
H          0.44193       -0.11387       -0.82548
H          2.91175        0.17693        0.96048
H          2.55259       -2.15054        0.04203
H          4.08047       -1.39627       -0.39307
H          3.18432       -2.47966       -2.37182
H          1.62275       -1.69007       -2.18058
H          4.29175       -0.35957       -2.84628
H          2.88336       -0.49391       -3.89563
H          3.10794        1.77535       -2.86558
H          1.58159        1.01979       -2.46123
H          3.99962        1.17228       -0.78952
