16
-1585.49
O          1.59493       -0.28344       -0.82900
C          2.78444        0.04095       -0.11011
C          3.53294       -1.07306        0.55600
C          4.08520       -0.44336       -0.68599
N          5.07040        0.66284       -0.63992
C          4.26314        1.88622       -0.45563
C          2.98330        1.46988        0.28154
H          0.80267       -0.14005       -0.28424
H          3.13305       -2.07669        0.46824
H          4.02414       -0.87999        1.50122
H          4.05102       -1.00798       -1.61162
H          5.67918        0.54245        0.16876
H          4.81572        2.66323        0.08165
H          4.00606        2.28045       -1.44582
H          3.12007        1.54737        1.36677
H          2.13886        2.10406       -0.00707
