15
-1503.76
C          1.52491        0.33867        0.45479
C          2.82100        0.01024       -0.26596
N          3.84186        0.97497        0.08334
C          5.11545        0.91126       -0.38262
N          5.78029       -0.07386       -0.85372
C          5.89516        2.11993       -0.37616
C          6.53852        3.13467       -0.37151
H          0.74881       -0.38763        0.19419
H          1.16447        1.33628        0.18160
H          1.66347        0.31877        1.54096
H          2.65245        0.02473       -1.34804
H          3.14105       -0.99888        0.01525
H          3.50069        1.91945        0.23436
H          5.20498       -0.91472       -0.82121
H          7.12200        4.02491       -0.37483
