17
-1620.3
C          1.39672       -0.38605        0.22854
N          2.54082       -0.28783       -0.68499
C          2.30588       -1.15073       -1.84998
C          2.70546        1.13076       -1.10912
C          4.03996        1.35536       -1.82307
N          5.08246        0.60767       -1.35057
O          4.20257        2.18723       -2.70976
H          1.56335        0.22521        1.12214
H          1.26894       -1.41779        0.57453
H          0.46126       -0.06113       -0.24295
H          2.17314       -2.19065       -1.53109
H          3.16602       -1.14531       -2.52746
H          1.41847       -0.84950       -2.41784
H          2.71882        1.78778       -0.23020
H          1.88702        1.44756       -1.76709
H          4.85867       -0.20131       -0.78109
H          5.96172        0.64964       -1.84322
