14
-1435.81
C          2.47555       -1.69830        0.19839
C          2.63996       -0.47177       -0.66013
O          2.26744       -0.45389       -1.83442
C          3.28740        0.73277       -0.03545
C          4.78375        0.68904       -0.14471
N          5.36133        1.73474       -0.80275
O          5.46642       -0.20729        0.33810
H          3.44964       -2.04896        0.54514
H          2.00261       -2.49318       -0.38497
H          1.83393       -1.46167        1.05174
H          3.01233        0.79409        1.02202
H          2.88355        1.62971       -0.51646
H          4.83221        2.34292       -1.41408
H          6.36175        1.68148       -0.95204
