17
-1726.17
C          2.46238       -1.12975        2.24438
C          3.21656       -1.24345        0.94765
C          3.49981       -2.43760        0.40044
C          3.60539        0.05133        0.27917
C          4.58317        0.85114        1.12662
C          5.95691        0.26985        1.33906
O          4.26381        1.93154        1.62765
H          3.08981       -0.66976        3.01448
H          2.14326       -2.10834        2.61954
H          1.56529       -0.51686        2.11138
H          3.20391       -3.36733        0.87903
H          4.02751       -2.52393       -0.54722
H          2.71128        0.66075        0.10473
H          4.06908       -0.11316       -0.70055
H          6.41372        0.04122        0.37372
H          5.88937       -0.63275        1.95019
H          6.58555        0.99893        1.85826
