17
-1661.64
C          0.96603        0.06217        0.12899
C          2.48146        0.01792       -0.05602
C          2.98776       -1.32529       -0.57600
C          2.71472       -1.46506       -2.06337
O          3.23449       -0.33815       -2.75787
C          2.65836        0.86675       -2.27256
O          2.93139        1.08150       -0.89416
H          0.65742        1.05178        0.48319
H          0.64046       -0.68582        0.85911
H          0.42605       -0.11925       -0.80495
H          2.92966        0.19298        0.92915
H          2.55972       -2.16273       -0.01532
H          4.07580       -1.35014       -0.43355
H          3.21038       -2.35972       -2.45350
H          1.64415       -1.56606       -2.27501
H          3.10761        1.69472       -2.82934
H          1.58112        0.89062       -2.47329
