14
-1401.66
C          0.96675       -0.02365       -0.12147
C          2.43615        0.09036        0.07368
O          3.21686       -0.66523       -0.85649
C          3.31142        0.76892       -0.95330
C          4.47936        1.51818       -0.47907
C          5.75940        1.14991       -0.62641
H          0.45998        0.82839        0.34171
H          0.59358       -0.93910        0.34798
H          0.69259       -0.04819       -1.18125
H          2.73316        0.07058        1.11375
H          2.82721        1.22204       -1.81279
H          4.27137        2.45704        0.02920
H          6.01844        0.22060       -1.12464
H          6.56715        1.76531       -0.24617
