14
-1472.88
N          2.71684       -0.96605       -0.46382
C          2.18095        0.15266        0.09944
O          1.05866        0.13389        0.59063
C          3.04032        1.38524        0.02885
C          2.40434        2.56461        0.13044
C          4.48959        1.27880       -0.01438
C          5.30367        2.06794       -0.72828
H          3.57389       -0.95365       -0.99707
H          2.13505       -1.79217       -0.49246
H          1.32160        2.61743        0.21168
H          2.93929        3.50761        0.15098
H          4.92118        0.47846        0.58487
H          4.92893        2.87505       -1.35063
H          6.37894        1.91892       -0.70315
