15
-1566.1
C          0.98710       -0.15804        0.00636
C          2.50713       -0.04589        0.02003
C          3.09855       -0.73002       -1.14638
C          3.57703       -1.29719       -2.09109
C          2.90877        1.42113        0.10776
C          2.96096        2.23621       -1.16154
O          3.12343        1.95419        1.20023
H          0.54996        0.35075        0.87251
H          0.67052       -1.20674        0.03380
H          0.55541        0.29455       -0.89383
H          2.88724       -0.53326        0.92690
H          4.00238       -1.80497       -2.92675
H          2.03130        2.12019       -1.72291
H          3.81543        1.92932       -1.76937
H          3.07831        3.29465       -0.90849
