14
-1323.38
N          3.05810       -0.97666       -0.51970
C          2.36304        0.09763        0.17208
C          3.25145        1.29930        0.18050
C          3.38505        2.16613       -1.04657
C          2.65616        2.68501        0.16193
H          2.47731       -1.81306       -0.50491
H          3.90894       -1.21163       -0.01184
H          2.13292       -0.20319        1.19918
H          1.41646        0.30386       -0.33823
H          4.13640        1.15001        0.78955
H          2.80487        1.90304       -1.92393
H          4.36398        2.57381       -1.27024
H          3.14071        3.45307        0.75391
H          1.58000        2.79159        0.09340
