19
-1900.09
C          2.06172       -0.41914        1.55828
C          2.54407        0.13035        0.43612
C          3.26461        1.44757        0.38544
C          4.67529        1.29854       -0.19126
C          5.38427        2.62124       -0.26008
C          6.38302        3.01091        0.79837
C          6.85438        2.66046       -0.58587
H          1.54337       -1.37261        1.53090
H          2.16873        0.06609        2.52317
H          2.40408       -0.39179       -0.50837
H          3.31879        1.90315        1.38197
H          2.68181        2.13563       -0.23952
H          4.61726        0.88323       -1.20488
H          5.25047        0.58460        0.41263
H          4.76922        3.40004       -0.69801
H          6.60254        2.31147        1.59760
H          6.42613        4.05153        1.09993
H          7.20976        3.46422       -1.22073
H          7.38152        1.72324       -0.72224
