11
-1260.97
C          0.96827        0.02105        0.00191
C          2.16896        0.02359        0.00032
C          3.58892        0.02269       -0.00262
N          4.33702        1.10425       -0.00755
C          5.63319        0.65546       -0.01067
C          5.67352       -0.71856       -0.00746
N          4.36227       -1.10791       -0.00178
H         -0.09678        0.03208        0.00272
H          6.46633        1.34611       -0.01530
H          6.48940       -1.42674       -0.00871
H          4.00996       -2.05430        0.00173
