15
-1544.16
C          1.03980       -0.05788        0.22154
C          2.36446        0.02063        0.06734
C          3.21184        1.26231       -0.05140
C          4.50166        0.76427       -0.73268
N          4.56501       -0.63928       -0.37183
C          3.31459       -1.11659       -0.11222
N          3.04819       -2.37024       -0.08781
H          0.51695       -1.00656        0.26032
H          0.43874        0.84073        0.31147
H          3.44155        1.64239        0.95084
H          2.73425        2.05635       -0.63240
H          4.42624        0.86616       -1.82139
H          5.38309        1.31077       -0.38564
H          5.16370       -1.26889       -0.89246
H          2.05893       -2.52033        0.11930
