10
-1013.4
N          0.97720       -0.05311        0.19735
C          2.33923        0.04558        0.08347
C          3.05449        1.17405        0.06178
C          4.52347        1.11722       -0.05345
O          5.19935        2.13742       -0.10085
H          0.56980       -0.86861       -0.25641
H          0.46504        0.80495        0.00208
H          2.81892       -0.93071        0.02009
H          2.61105        2.15894        0.13235
H          4.97460        0.11210       -0.09826
