13
-1389.31
C          3.03757       -1.16435        0.53061
O          2.31537        0.03484        0.28768
C          3.09538        1.13079        0.15783
C          2.55999        2.37426       -0.08036
O          3.54815        3.30429       -0.16971
C          4.72198        2.64489        0.01352
C          4.49845        1.30229        0.21942
H          2.31456       -1.98118        0.61834
H          3.59445       -1.10723        1.47283
H          3.70811       -1.39870       -0.30405
H          1.55208        2.74391       -0.20544
H          5.61107        3.25922       -0.03040
H          5.26180        0.55849        0.39023
