13
-1362.55
C          0.92880        0.13063        0.14265
C          2.41158       -0.10606        0.03772
C          2.91917       -1.35020       -0.00682
C          3.28954        1.12429       -0.05411
C          3.29360        1.88719        1.20519
N          3.30004        2.50342        2.18825
H          0.68473        0.65668        1.07089
H          0.36258       -0.80694        0.13544
H          0.58039        0.73345       -0.70235
H          2.27988       -2.22731        0.04901
H          3.98675       -1.53278       -0.09256
H          2.93523        1.75838       -0.87550
H          4.31986        0.84411       -0.30543
