15
-1420.77
N          1.85739       -0.93569       -0.94760
C          2.02946       -0.22996        0.32602
C          2.82877        1.06905        0.15780
O          4.17324        0.73583       -0.20954
C          5.04322        1.77117       -0.39908
C          4.82859        3.08621       -0.28669
H          1.51270       -1.87697       -0.76684
H          2.77947       -1.04592       -1.37498
H          2.55319       -0.89398        1.02243
H          1.04166       -0.00508        0.74000
H          2.83276        1.60515        1.11445
H          2.36674        1.69741       -0.61369
H          6.01372        1.37388       -0.67607
H          3.87121        3.50863       -0.01502
H          5.63797        3.78440       -0.47610
