18
-1767.66
C          1.71991       -0.10591        0.45155
C          2.61386        0.10146       -0.77860
C          2.11631       -0.57897       -2.04033
C          0.98548       -1.27635       -2.21675
C          2.83319        1.58654       -0.98639
C          4.03374        2.27484       -0.38262
N          3.94991        2.04439       -1.81980
H          2.16048        0.37262        1.33312
H          1.59585       -1.17003        0.67895
H          0.72703        0.33482        0.30591
H          3.58035       -0.36758       -0.54593
H          2.78683       -0.47707       -2.89482
H          0.26278       -1.43290       -1.42410
H          0.76041       -1.71574       -3.18440
H          1.90810        2.14331       -1.08541
H          4.77248        1.68205        0.14274
H          3.93430        3.29938       -0.04804
H          3.69354        2.89878       -2.31812
