14
-1448.88
C          0.93702        0.05577       -0.00928
C          2.42607        0.05909       -0.00245
C          3.21556        1.19574        0.00686
S          4.86036        0.74171        0.01183
N          4.58534       -0.88754        0.00220
C          3.27046       -1.11235       -0.00465
C          2.81879       -2.53225       -0.01421
H          0.53529        1.07429       -0.00304
H          0.55212       -0.46378        0.87400
H          0.56041       -0.44983       -0.90414
H          2.91689        2.23415        0.01080
H          1.72746       -2.61408       -0.00921
H          3.19770       -3.05912        0.86781
H          3.18874       -3.04376       -0.90903
