17
-1569.14
C          1.79806       -0.19040        0.44002
C          3.24973        0.02792        0.05127
N          3.57173        1.44378        0.24176
C          4.79255        1.72262       -0.06739
N          5.34414        2.97993        0.02963
C          6.51206        3.37767       -0.72829
O          4.37057        3.99112        0.08913
H          1.52148       -1.24205        0.31432
H          1.13140        0.41746       -0.18094
H          1.62684        0.08812        1.48525
H          3.39059       -0.26284       -0.99641
H          3.89034       -0.60157        0.68008
H          5.51061        0.96689       -0.43362
H          7.31961        2.64996       -0.60193
H          6.87889        4.34904       -0.38180
H          6.27315        3.45441       -1.79360
H          3.58310        3.50864        0.42795
