20
-1914.03
C          0.91570        0.02982       -0.02599
C          2.42941       -0.04042        0.02739
C          3.14252        0.95286        0.96767
N          4.10684       -0.10975        1.32546
C          3.12950       -1.14542        0.87968
C          2.37092       -1.72632        2.07289
C          3.80161       -2.23850        0.05266
H          0.51267       -0.82914       -0.57017
H          0.59401        0.93760       -0.54521
H          0.46850        0.04128        0.97195
H          2.83297        0.01964       -0.99538
H          2.54590        1.29979        1.81899
H          3.58528        1.82583        0.47891
H          4.95583       -0.07783        0.75994
H          1.93020       -0.94830        2.70630
H          3.03337       -2.32817        2.70565
H          1.55675       -2.37543        1.73264
H          4.39780       -1.82361       -0.76775
H          3.05037       -2.90144       -0.38940
H          4.46777       -2.85025        0.67065
