14
-1343.91
C          1.12075       -0.00811        0.11370
C          2.63087        0.03563        0.04971
C          3.30082       -1.30053       -0.01021
C          4.22427       -1.64621        0.89390
N          3.18122        1.21219        0.00398
N          4.52557        1.27079       -0.11322
H          0.74543        0.84068        0.69371
H          0.77789       -0.93248        0.58602
H          0.71851        0.04805       -0.90248
H          2.95385       -1.98835       -0.77180
H          4.53936       -0.95564        1.67122
H          4.68809       -2.62638        0.87098
H          4.81847        2.23683       -0.26597
H          4.86614        0.72907       -0.90868
