16
-1576.85
C          0.94395        0.05419       -0.01866
C          2.45782        0.02126        0.01541
C          3.15397        1.00130        0.97986
N          4.12373       -0.06493        1.31523
C          3.11616       -1.08244        0.88123
C          3.77083       -2.29192        0.14907
O          4.60346       -2.24069       -0.75773
H          0.55414       -0.79450       -0.58961
H          0.58984        0.97284       -0.49756
H          0.51419        0.01053        0.98751
H          2.87290        0.07341       -1.00152
H          2.54965        1.31833        1.83811
H          3.59235        1.88962        0.51563
H          4.94556       -0.06137        0.70224
H          2.48753       -1.41648        1.71824
H          3.43048       -3.27684        0.51429
