14
-1399.39
C          1.41201        0.14925       -1.48321
C          2.60442        0.22872       -0.89024
O          3.43117        1.30588       -1.07592
C          4.65860        1.18819       -0.32915
C          5.80500        0.50382       -1.02324
C          5.80764        1.99638       -0.86832
H          0.76949       -0.71046       -1.33180
H          1.06092        0.94451       -2.13225
H          2.98735       -0.54643       -0.24075
H          4.59253        1.11521        0.75297
H          5.63162        0.09727       -2.01274
H          6.49048       -0.07372       -0.41559
H          6.49580        2.43457       -0.15586
H          5.63286        2.60054       -1.75099
