16
-1534.68
O          1.00972        0.03627       -0.04724
C          2.42918        0.01793       -0.00382
C          3.00042        1.10461        0.89427
N          4.36268        0.63753        1.20074
C          4.22631       -0.82008        1.38941
C          2.96226       -1.26189        0.64116
O          3.22128       -2.24669       -0.35677
H          0.73630       -0.79237       -0.48265
H          2.79943        0.12817       -1.03116
H          2.41467        1.21491        1.81457
H          3.01250        2.07951        0.39741
H          4.95706        0.81214        0.38933
H          5.12757       -1.33990        1.04783
H          4.11134       -1.02129        2.46078
H          2.23094       -1.68633        1.33753
H          3.96722       -1.93808       -0.90021
