19
-1845.15
C          1.68379       -0.33652        1.53645
C          2.28093       -0.05567        0.16363
C          2.62965        1.39957       -0.04431
C          1.47869        2.36664       -0.08517
C          3.90442        1.78463       -0.21569
O          4.26728        3.08525       -0.44553
C          5.60206        3.35409       -0.02431
H          1.51941       -1.41153        1.66116
H          0.71780        0.16209        1.66209
H          2.35129       -0.00018        2.33564
H          1.57490       -0.37191       -0.61440
H          3.17190       -0.68471        0.04015
H          0.73424        2.03854       -0.81807
H          1.78565        3.37922       -0.36448
H          0.99636        2.42987        0.89572
H          4.73195        1.08502       -0.21221
H          5.80522        4.41412       -0.20034
H          6.32030        2.76616       -0.60499
H          5.71905        3.15355        1.04560
