17
-1664.61
C          1.03884        0.23970       -0.08431
C          2.56746        0.13762       -0.01521
C          2.98362       -0.70917        1.19301
C          3.10265       -0.45084       -1.33033
O          4.51005       -0.66180       -1.28303
C          3.12405        1.53861        0.18901
O          4.09326        1.98469       -0.42104
H          0.72341        0.88049       -0.91571
H          0.62502        0.67373        0.83311
H          0.58196       -0.74576       -0.22429
H          2.56964       -0.30246        2.12295
H          4.07196       -0.73164        1.31321
H          2.63082       -1.74268        1.09163
H          2.88668        0.20398       -2.18275
H          2.63768       -1.42141       -1.53401
H          4.91485        0.22595       -1.18654
H          2.63918        2.13911        0.97831
