15
-1547.4
O          0.99962       -0.00509       -0.00582
C          2.42000        0.00000        0.00000
C          2.90202        1.36117        0.00000
C          3.29930        2.48307        0.00000
C          3.93882        3.76518        0.03554
C          3.76884        4.69665       -1.13384
C          3.11327        5.01251        0.17947
H          0.72520       -0.93619       -0.00677
H          2.76973       -0.53981       -0.88534
H          2.76242       -0.53731        0.88970
H          4.91181        3.77419        0.52005
H          3.13394        4.39053       -1.95677
H          4.62825        5.28461       -1.43323
H          3.52684        5.82045        0.77287
H          2.03561        4.91866        0.24653
