21
-2046.51
C          0.92271        0.13806       -0.27000
C          2.41098        0.11174       -0.00438
C          2.73270       -0.00160        1.46826
C          3.29160       -0.63292       -0.98501
C          3.36870        0.87803       -0.93760
C          2.81031        1.65570       -2.10781
C          4.62468        1.50426       -0.37483
H          0.67633       -0.00045       -1.32665
H          0.49825        1.09135        0.06080
H          0.42241       -0.66746        0.27857
H          3.78721       -0.22050        1.65913
H          2.15433       -0.81275        1.92420
H          2.47657        0.93090        1.98181
H          2.82832       -1.10179       -1.84735
H          4.12680       -1.20831       -0.59853
H          2.02683        1.11400       -2.64497
H          3.60078        1.87120       -2.83491
H          2.39527        2.60798       -1.76231
H          5.15444        0.84573        0.31929
H          4.37933        2.43286        0.15039
H          5.32678        1.74288       -1.18110
