14
-1493.76
C          0.99251        0.05482        0.00195
C          2.47504       -0.02599        0.00446
C          3.25132       -1.12279        0.00706
C          4.69787       -0.72305        0.00868
C          4.60400        0.77374        0.00617
C          3.31756        1.14975        0.00410
H          0.53905       -0.94192       -0.00094
H          0.63678        0.58756       -0.88581
H          0.63360        0.58403        0.89052
H          2.90151       -2.14525        0.00780
H          5.21044       -1.08960       -0.88534
H          5.20784       -1.08689        0.90504
H          5.45344        1.43999        0.00656
H          2.95009        2.16462        0.00184
