20
-1915.97
C          1.07627       -0.24925       -0.40981
C          2.58512       -0.14978       -0.56292
C          3.19428        0.78842        0.47716
C          4.67973        0.90248        0.30099
C          5.56263        1.15786        1.49560
C          5.59129       -0.18088        0.81455
N          6.76115       -0.56167        0.02976
H          0.66350       -0.93701       -1.15504
H          0.60239        0.72785       -0.55010
H          0.80597       -0.62307        0.58330
H          2.82493        0.20369       -1.57299
H          3.02367       -1.14989       -0.46606
H          2.95112        0.42837        1.48467
H          2.75387        1.78727        0.38059
H          4.93877        1.40573       -0.62393
H          5.11123        1.20740        2.47979
H          6.41022        1.82206        1.37260
H          5.13289       -1.00511        1.35601
H          7.19281        0.24823       -0.41392
H          6.49329       -1.18640       -0.72987
