16
-1580.87
C          0.94723        0.02591        0.13551
C          2.46174        0.07222       -0.01215
C          3.18268        1.09209        0.90933
C          4.15842       -0.05666        1.21178
N          3.10719       -1.00718        0.80161
C          2.92154        0.03472       -1.52411
O          3.08522       -0.96437       -2.22570
H          0.63853       -0.00649        1.18659
H          0.52866       -0.85558       -0.36281
H          0.49079        0.91356       -0.31550
H          2.60104        1.42295        1.77811
H          3.62215        1.96728        0.42312
H          5.04531       -0.07356        0.56782
H          4.47520       -0.14458        2.25431
H          3.43681       -1.79663        0.24014
H          3.12292        1.03138       -1.95269
