19
-1853.67
C          2.19693       -0.63424        1.45416
C          2.67707       -0.19302        0.07817
O          1.59011       -0.26735       -0.84187
C          3.17720        1.22384        0.09376
C          4.45282        1.65230        0.00572
C          5.66164        0.76273       -0.09435
C          4.76962        3.12558        0.00674
H          3.01210       -0.62087        2.18386
H          1.78871       -1.64938        1.40573
H          1.38984        0.00974        1.82052
H          3.43316       -0.89340       -0.28475
H          0.88575        0.31543       -0.51415
H          2.39558        1.97711        0.17932
H          5.43315       -0.29761        0.03068
H          6.38531        1.02461        0.68493
H          6.14347        0.89122       -1.06881
H          3.86890        3.74536        0.06700
H          5.29954        3.39913       -0.91159
H          5.40382        3.37668        0.86316
