13
-1327.09
C          0.50338        0.65080        1.40811
C          1.34137        0.06991        0.53951
C          2.66504        0.67684        0.23719
O          3.05594        1.70849        0.77881
N          3.44771        0.02857       -0.68866
N          3.07594       -1.11330       -1.33453
C          3.94373       -1.56421       -2.17644
H         -0.46134        0.20771        1.62804
H          0.76205        1.57674        1.91424
H          1.07356       -0.85249        0.04041
H          4.34415        0.46162       -0.87996
H          3.72400       -2.48292       -2.74237
H          4.91508       -1.08070       -2.37432
