15
-1542.87
C          1.01192       -0.02936        0.23838
C          2.52000        0.00000        0.00000
O          2.74921       -0.63889       -1.26552
C          3.99972       -1.09649       -1.57113
C          5.13918       -0.98616       -0.88059
C          3.00202        1.36117        0.00000
C          3.39930        2.48307        0.00000
H          0.74765        0.42765        1.19776
H          0.64466       -1.06154        0.23118
H          0.47382        0.50164       -0.55578
H          2.98641       -0.58826        0.79987
H          3.96573       -1.59869       -2.53319
H          5.21214       -0.47335        0.07075
H          6.05737       -1.40534       -1.28125
H          3.75579        3.48718       -0.00916
