17
-1660.1
C          0.97675        0.01011       -0.12958
C          2.48028        0.00102        0.14435
C          3.14179        1.30966       -0.28304
C          3.61478        1.23063       -1.72723
N          4.46041        0.05302       -1.84171
N          3.98093       -1.16197       -1.50187
C          3.08498       -1.19528       -0.56095
H          0.48740        0.82853        0.41240
H          0.51595       -0.92888        0.19795
H          0.76019        0.12676       -1.19736
H          2.62401       -0.14508        1.22112
H          2.46506        2.16298       -0.14879
H          4.00827        1.49680        0.36630
H          4.19011        2.12903       -1.97700
H          2.77028        1.16890       -2.42140
H          4.91737        0.01684       -2.75571
H          2.71076       -2.18751       -0.25172
