14
-1541.79
C          3.00329       -1.11283        0.46351
C          2.39708        0.01243        0.06585
C          3.01158        1.28859        0.04585
C          2.47576        2.55857       -0.06984
C          3.54204        3.48965       -0.05283
C          4.70766        2.76888        0.05960
N          4.37792        1.43833        0.11187
H          2.45218       -2.04925        0.46029
H          4.02543       -1.15796        0.81856
H          1.35360       -0.04119       -0.24001
H          1.42197        2.79137       -0.15309
H          3.46598        4.56700       -0.12033
H          5.74154        3.08361        0.10188
H          5.04689        0.68403        0.17335
