17
-1634.43
C          5.22399        4.05538        2.30618
C          4.98588        3.33516        0.99334
O          6.23276        3.20671        0.31336
C          6.07329        2.57099       -0.95448
C          7.39253        2.56685       -1.64838
C          8.27996        1.35268       -1.65565
O          7.46372        1.69537       -2.78499
H          4.28783        4.18189        2.85644
H          5.66599        5.04128        2.12951
H          5.92882        3.49688        2.93029
H          4.28505        3.91109        0.37867
H          4.56476        2.34146        1.18299
H          5.35172        3.13196       -1.55896
H          5.69681        1.55310       -0.80680
H          7.83679        3.54959       -1.73481
H          7.99161        0.48826       -1.07085
H          9.34875        1.49999       -1.74867
