19
-1847.41
C          1.12715       -0.49142        0.14819
C          2.64238       -0.74597        0.09961
C          3.06152       -1.42909        1.40886
C          2.94856       -1.62712       -1.11997
O          3.23391        0.56250       -0.02491
C          4.58848        0.65443       -0.14749
C          5.18109        1.81136       -0.43926
H          0.78862        0.02078       -0.76003
H          0.86915        0.16493        0.98758
H          0.56089       -1.42305        0.25122
H          2.89250       -0.76605        2.26470
H          4.12680       -1.68129        1.41297
H          2.50284       -2.35697        1.57119
H          2.71324       -1.09898       -2.05089
H          2.37310       -2.55872       -1.09345
H          4.00892       -1.89561       -1.16945
H          5.15251       -0.25231        0.01504
H          4.59497        2.71178       -0.59315
H          6.25937        1.88129       -0.52819
