17
-1655.91
C          1.22024        0.12741       -0.22154
N          2.66239        0.05506        0.06447
C          3.15532       -1.19810        0.39102
N          4.34810       -1.67093        0.28284
C          3.44818        1.21941       -0.04612
C          4.62372        1.37551        0.89802
C          3.16802        2.24408       -0.87243
H          0.79840        1.08872        0.09341
H          0.65916       -0.64814        0.31174
H          1.04489       -0.00300       -1.29475
H          2.37330       -1.88149        0.76490
H          4.94253       -0.96126       -0.14855
H          4.38827        0.96138        1.88412
H          4.87818        2.43009        1.05370
H          5.51665        0.88144        0.50652
H          2.33512        2.21777       -1.56569
H          3.78612        3.13688       -0.89755
