17
-1682.88
C         -1.68249        0.70463        0.22556
C         -1.55700       -0.73921       -0.40148
C         -0.18038       -0.72434        0.25366
O          1.05716       -1.23549       -0.25389
C          2.02002       -0.17235       -0.04519
C          1.19866        0.99478        0.57070
C         -0.16033        0.80698       -0.08347
H         -2.32737        1.39166       -0.32762
H         -1.94427        0.73614        1.28914
H         -1.55503       -0.77798       -1.49617
H         -2.26570       -1.47427       -0.01307
H         -0.25368       -0.97067        1.32650
H          2.81771       -0.51155        0.62061
H          2.43322        0.10162       -1.02051
H          1.13911        0.89785        1.66222
H          1.65216        1.96373        0.34162
H         -0.03033        1.04788       -1.15345
