15
-1577.93
C          1.36237       -0.30476        1.06507
C          2.25883       -0.14086        0.08313
C          3.09552        1.09090       -0.10268
C          4.55868        0.76994       -0.00576
C          5.42539        0.96371       -1.01026
C          6.85437        0.63116       -0.84782
O          7.65602        0.81179       -1.75520
H          0.78109       -1.21876        1.13866
H          1.18302        0.46317        1.81123
H          2.39063       -0.93915       -0.64546
H          2.85376        1.84625        0.65485
H          2.85312        1.53240       -1.07696
H          4.89727        0.37027        0.94829
H          5.13558        1.36396       -1.97491
H          7.15413        0.21703        0.12921
