15
-1417.04
O          1.95375       -1.30510       -0.20498
C          2.08462        0.08449       -0.48621
C          2.91750        0.75756        0.60036
C          4.35645        0.33523        0.53741
C          5.38777        1.18807       -0.15699
N          5.34262        1.10375        1.29896
H          1.35253       -1.67648       -0.87346
H          1.08053        0.51996       -0.50831
H          2.54507        0.19951       -1.47252
H          2.52039        0.48836        1.58631
H          2.83282        1.84564        0.49171
H          4.48222       -0.74152        0.54832
H          5.08957        2.13983       -0.57889
H          6.22324        0.70189       -0.64482
H          6.07290        0.48489        1.65734
