17
-1730.64
C          0.83872       -0.12015        0.11608
C          2.32633        0.01361        0.00337
C          3.03694        1.15463       -0.09744
C          2.46204        2.54400       -0.07067
C          4.54154        1.12456       -0.23587
C          5.26556       -0.19742       -0.28661
O          5.17073        2.18115       -0.31142
H          0.49090       -0.89168       -0.57927
H          0.29592        0.79516       -0.12525
H          0.56863       -0.43154        1.12946
H          2.83162       -0.94895       -0.00144
H          1.39249        2.56624        0.15014
H          2.61159        3.03466       -1.03816
H          2.95072        3.14577        0.70360
H          4.92331       -0.78433       -1.14267
H          5.12017       -0.74478        0.64827
H          6.33801       -0.01563       -0.40970
