18
-1704.8
C          1.43419        0.37008       -0.64304
O          2.85306        0.45127       -0.62927
C          3.31162        1.45402        0.28153
C          4.83370        1.48345        0.23213
C          5.48307        2.13414       -1.01014
C          6.47322        2.73663       -0.00124
N          5.42365        2.59576        1.03563
H          1.14141       -0.42378       -1.33530
H          1.00063        1.31329       -0.98940
H          1.05349        0.12282        0.35278
H          2.97410        1.19919        1.29331
H          2.88583        2.42545        0.00103
H          5.27215        0.50749        0.48412
H          4.86173        2.87916       -1.52184
H          5.90645        1.44888       -1.74846
H          7.35960        2.11836        0.18230
H          6.78798        3.76432       -0.19956
H          5.77263        2.31590        1.95117
