13
-1371.21
O          0.97907       -0.15011       -0.04901
C          2.19026       -0.06661       -0.00522
C          3.17970       -1.21521        0.05376
C          4.47730       -0.38487       -0.03882
C          4.31317        0.71996       -1.14578
C          3.23758        1.13443       -0.07989
O          4.31557        0.77374        0.92322
H          3.06145       -1.87838       -0.80499
H          3.10399       -1.74502        1.00500
H          5.44557       -0.87933        0.04584
H          3.93683        0.38555       -2.11467
H          5.15507        1.40411       -1.26907
H          2.90121        2.16584       -0.01586
