17
-1725.41
C          0.92900        0.07851        0.02061
C          2.44381       -0.01697        0.01039
C          3.10717        1.34280       -0.02883
O          2.49758        2.40611       -0.04653
C          4.60092        1.31422       -0.04252
C          5.37340        2.36491       -0.80399
C          5.38532        2.37096        0.69804
H          0.48366       -0.92066        0.04918
H          0.56120        0.59183       -0.87430
H          0.57578        0.63583        0.89494
H          2.76845       -0.58473       -0.86807
H          2.78336       -0.54023        0.91066
H          5.03151        0.31643       -0.04204
H          4.81909        3.15146       -1.30582
H          6.27617        2.06043       -1.31947
H          6.29628        2.07054        1.20154
H          4.83896        3.16166        1.20208
