19
-1848.06
C          1.38783        0.54729       -0.58360
C          2.38141        1.08708        0.38924
C          3.60369        1.51026        0.05419
O          4.47751        1.98186        0.99482
C          5.52080        2.80714        0.45761
C          5.89120        3.82213        1.53403
C          6.72610        1.94268        0.10079
H          1.12541       -0.48115       -0.31746
H          1.77119        0.54786       -1.60889
H          0.47627        1.15228       -0.56013
H          2.07722        1.13169        1.43210
H          3.98010        1.48267       -0.95980
H          5.17152        3.35813       -0.42607
H          6.21903        3.32129        2.45168
H          5.01881        4.42828        1.80131
H          6.68844        4.48996        1.19391
H          7.07024        1.37217        0.97042
H          7.55529        2.55323       -0.26938
H          6.46573        1.21135       -0.67127
