15
-1576.85
C          1.45823       -0.66693        0.88091
C          2.22125       -0.15950       -0.09627
C          3.15601        1.00704        0.06858
C          4.59607        0.58130        0.03622
C          5.36684        0.45065        1.12833
C          5.21770        0.32408       -1.28863
O          4.61328        0.46487       -2.34537
H          0.80090       -1.50904        0.68785
H          1.47461       -0.26289        1.88778
H          2.16936       -0.59876       -1.09216
H          2.94239        1.52799        1.01127
H          2.95743        1.74264       -0.72054
H          4.96004        0.63532        2.11875
H          6.40900        0.15138        1.07813
H          6.27139       -0.00157       -1.27085
