19
-1846.98
C          0.79842        0.27789       -0.42866
C          2.23625        0.05316       -0.03454
C          2.53612        0.10170        1.45802
C          1.64165       -0.79902        2.30778
O          1.85593       -2.17214        2.00407
C          3.07829       -0.85265       -0.91171
C          3.29453        0.63252       -0.95301
H          0.68814        0.42132       -1.50872
H          0.39787        1.16621        0.06981
H          0.18422       -0.58508       -0.15154
H          2.42336        1.13767        1.79872
H          3.58169       -0.18277        1.63044
H          0.57957       -0.57092        2.17686
H          1.87992       -0.65783        3.36693
H          1.69011       -2.28302        1.05167
H          2.62056       -1.31716       -1.77850
H          3.84999       -1.46022       -0.45129
H          4.20727        1.02464       -0.51504
H          2.98146        1.16800       -1.84231
