14
-1335.73
C          0.19271        0.92910       -0.23241
N         -0.76542       -0.08509        0.17977
C          0.63903       -0.48799        0.03671
C          1.40271       -0.89601        1.28783
C          1.29727       -2.28156        1.87808
N          2.49761       -1.86547        1.16879
H          0.13644        1.26750       -1.25924
H          0.42145        1.69158        0.49967
H         -1.30842       -0.42852       -0.61440
H          0.84752       -1.09328       -0.84570
H          1.57654       -0.09513        2.00441
H          0.66438       -3.00244        1.37514
H          1.37012       -2.39055        2.95268
H          3.24747       -1.63706        1.82328
