16
-1551.13
C          7.11809        2.11818       -0.02964
O          6.16501        2.92973       -0.70576
N          4.93924        2.82842       -0.03108
C          4.05418        3.51798       -0.67534
C          2.62666        3.58561       -0.19798
C          2.32468        4.99515        0.21460
C          1.40426        5.77152       -0.37281
H          8.06896        2.18238       -0.56450
H          6.78887        1.07453       -0.02040
H          7.26341        2.47737        0.99419
H          4.30321        4.06918       -1.59960
H          2.48269        2.91075        0.65135
H          1.98116        3.25601       -1.01859
H          2.89172        5.39084        1.05602
H          0.80536        5.42039       -1.20774
H          1.22581        6.78330       -0.02060
