20
-1866.88
C          0.97049       -0.01285        0.07128
C          2.51101        0.01385        0.06889
C          3.00955       -0.55155        1.41298
C          3.07430       -0.87789       -1.06934
N          2.69406       -0.43522       -2.41469
C          3.01568        1.46939       -0.06335
O          2.56469        2.09024       -1.26148
H          0.54631        0.42016       -0.84042
H          0.57064        0.55743        0.91777
H          0.59579       -1.03932        0.15752
H          2.64246        0.04533        2.25565
H          4.10455       -0.55445        1.45974
H          2.66665       -1.58203        1.56084
H          2.74115       -1.91448       -0.93650
H          4.16963       -0.88762       -1.01716
H          1.68771       -0.56855       -2.53827
H          3.12789       -1.05836       -3.09923
H          4.11108        1.50548       -0.05829
H          2.66300        2.08146        0.77426
H          2.70106        1.42482       -1.97274
