17
-1589.29
C          1.44036        0.06865        0.07102
C          2.48060        1.17098        0.12469
O          3.77696        0.56602        0.00478
C          4.84202        1.41159        0.02536
C          6.13472        0.65370       -0.07267
N          4.70085        2.70182        0.11762
N          5.84357        3.42815        0.11286
H          0.43115        0.47956        0.16556
H          1.60423       -0.65623        0.87554
H          1.51092       -0.48206       -0.87281
H          2.40764        1.70054        1.08076
H          2.31889        1.86969       -0.70325
H          5.95016       -0.42343       -0.12401
H          6.74888        0.85564        0.80945
H          6.67216        0.95456       -0.97629
H          5.62449        4.39973        0.34814
H          6.24067        3.47175       -0.82929
