18
-1755.67
C          0.73874        0.34866       -0.60477
C          2.13185        0.15804       -0.04591
C          3.00951       -0.88481       -0.71773
C          3.26351        0.56536       -0.97770
N          2.39094        0.46576        1.39087
C          1.23571        0.49851        2.27536
C          2.11729       -0.71158        2.22069
H          0.72185        0.24850       -1.69591
H          0.35625        1.34525       -0.36261
H          0.05459       -0.40643       -0.20545
H          2.58556       -1.47911       -1.51859
H          3.73724       -1.41909       -0.11701
H          4.15049        1.01218       -0.54076
H          3.01826        0.96076       -1.95623
H          0.23010        0.41957        1.88739
H          1.32791        1.15375        3.13411
H          2.81150       -0.87725        3.03468
H          1.72552       -1.60584        1.75328
