20
-1916.03
C          1.32378       -0.30145       -0.15112
C          2.80733        0.00780       -0.02805
N          3.01168        1.45450       -0.02928
C          4.43187        1.78478        0.06419
C          4.63021        3.28016        0.06111
C          4.16215        4.02014       -1.16320
C          5.22347        3.92257        1.08123
H          1.16326       -1.38449       -0.15081
H          0.91162        0.09964       -1.08370
H          0.75706        0.12313        0.68513
H          3.33558       -0.45207       -0.87047
H          3.19113       -0.43429        0.89816
H          2.53013        1.86889        0.76829
H          4.97684        1.36061       -0.78882
H          4.85927        1.34457        0.97371
H          4.58860        3.57015       -2.06617
H          4.46550        5.07209       -1.14604
H          3.07097        3.99095       -1.23994
H          5.57453        3.39289        1.96157
H          5.37250        4.99859        1.06446
