14
-1398.8
C          1.03307       -0.29037       -0.33972
N          2.30761        0.04234        0.25070
C          2.95565        1.24541        0.06749
N          2.57200        2.44881       -0.12604
C          1.16166        2.77734       -0.11628
C          4.41995        1.19404        0.10125
N          5.57645        1.07056        0.13119
H          0.85319       -1.36556       -0.23962
H          1.01768       -0.04554       -1.40607
H          0.21267        0.22262        0.16792
H          2.93180       -0.76019        0.30625
H          1.05129        3.86638       -0.09355
H          0.65622        2.39032        0.77397
H          0.66195        2.42147       -1.02194
