17
-1720.47
C          0.92985       -0.02637       -0.08023
C          2.44115       -0.02014        0.15272
C          3.09392        1.24021       -0.44484
O          3.20515        1.13079       -1.86647
C          4.11240        0.09097       -2.24791
C          3.83130       -1.19775       -1.53061
C          3.05392       -1.26341       -0.43931
H          0.46621        0.85380        0.37726
H          0.46885       -0.91357        0.36851
H          0.68209       -0.02169       -1.14774
H          2.62065       -0.01596        1.23413
H          2.49460        2.12909       -0.22189
H          4.09171        1.40811       -0.01885
H          5.14019        0.41756       -2.05450
H          4.00312       -0.05571       -3.32696
H          4.28062       -2.09965       -1.93458
H          2.85531       -2.21885        0.03968
