10
-1209.01
N          0.89738        0.09387       -0.00656
C          2.05660        0.04544       -0.00383
C          3.47934       -0.01775        0.00008
C          4.32484        1.06658        0.00260
O          5.62018        0.65249        0.00733
C          5.60074       -0.70655        0.00775
C          4.30456       -1.16950        0.00280
H          4.17786        2.13835        0.00179
H          6.56984       -1.18724        0.01180
H          3.99805       -2.20658        0.00187
