15
-1521.81
C          2.91393       -1.09933       -0.48459
N          2.35349        0.08523        0.15649
C          3.31096        1.20166        0.19313
C          3.43332        2.09659       -1.00750
C          2.78707        2.61904        0.24984
C          3.48647        3.58279        1.04846
N          4.05929        4.35822        1.69539
H          2.16364       -1.89565       -0.50254
H          3.78968       -1.46841        0.05897
H          3.20035       -0.88965       -1.52015
H          2.05800       -0.16460        1.10195
H          4.22967        0.99419        0.74126
H          2.79113        1.90658       -1.86021
H          4.42355        2.44838       -1.27483
H          1.71010        2.74833        0.22089
