12
-1239.64
C          0.69617       -0.12786        0.15662
C          2.17403       -0.26994       -0.09588
O          2.68198       -1.37040       -0.30577
C          2.97553        1.00339       -0.11908
C          4.44964        0.77444       -0.26881
O          5.28819        1.47815        0.28981
H          0.53262        0.36555        1.11779
H          0.22975       -1.11657        0.18513
H          0.24314        0.45536       -0.64907
H          2.79962        1.54798        0.81371
H          2.64077        1.60454       -0.96943
H          4.75722        0.01562       -1.00893
