17
-1683.14
C          1.02242       -0.04768        0.11385
C          2.53247       -0.01546        0.06352
N          3.08753        1.14194       -0.04423
C          4.54824        1.21654       -0.14760
C          5.27435       -0.03402        0.32637
C          4.59390       -1.26843       -0.23036
N          3.19951       -1.20970        0.12959
H          0.64916       -1.07500        0.09835
H          0.62111        0.48679       -0.75091
H          0.67908        0.44516        1.02789
H          4.80996        1.42926       -1.19254
H          4.89489        2.07068        0.44352
H          6.32467       -0.00256        0.01123
H          5.26440       -0.06870        1.42066
H          5.04809       -2.17358        0.18428
H          4.69123       -1.31260       -1.32071
H          2.66472       -2.06105        0.00354
