19
-1777.07
C          3.42039       -1.03689       -1.20409
C          2.73063       -0.36381       -0.02653
C          2.72202        1.15740       -0.13751
C          4.11466        1.71902       -0.03461
N          4.63954        2.34882       -1.03589
N          5.89712        2.78920       -0.79885
C          6.55308        3.43046       -1.93282
H          3.32781       -2.12487       -1.12354
H          4.48751       -0.79437       -1.23229
H          2.97145       -0.72750       -2.15369
H          3.22408       -0.67298        0.90284
H          1.69433       -0.71865        0.02443
H          2.14098        1.57846        0.68989
H          2.25759        1.47720       -1.07630
H          4.65204        1.55581        0.91770
H          5.92733        3.42836       -0.00082
H          6.61056        2.74657       -2.78590
H          7.57388        3.71427       -1.65950
H          6.01344        4.33272       -2.23821
