17
-1715.72
C          0.99795        0.02906        0.28225
C          2.51325        0.00981        0.06275
C          2.95906       -1.29859       -0.62600
C          2.85425       -0.99464       -2.08939
O          3.96772       -0.30592       -2.66485
C          2.84787        0.48698       -2.26474
C          2.94837        1.12488       -0.91257
H          0.68861        0.97304        0.74220
H          0.69618       -0.78451        0.94959
H          0.44779       -0.08415       -0.65716
H          3.00230        0.12695        1.03613
H          2.33582       -2.15166       -0.34048
H          3.99785       -1.53089       -0.36620
H          2.22677       -1.63106       -2.69026
H          2.21475        0.96017       -2.99652
H          3.98509        1.42041       -0.71537
H          2.31764        2.01591       -0.83327
