12
-1253.78
O          2.27863       -0.54405       -1.31559
C          2.37003       -0.03496        0.00686
C          2.87178        1.35247        0.00339
C          2.15316        2.52452       -0.00719
O          2.99711        3.58564        0.00684
N          4.30522        3.12953        0.01928
C          4.21151        1.79775        0.00221
H          1.92879       -1.44804       -1.24762
H          3.04081       -0.68375        0.58035
H          1.37655       -0.08526        0.46538
H          1.10103        2.76689       -0.02362
H          5.12007        1.21208       -0.00631
