15
-1505.31
C          1.33822       -0.38181       -0.81813
C          2.29486       -0.07006        0.06639
C          3.03557        1.22694        0.09940
O          4.42296        0.92337       -0.01057
C          5.21368        2.10475       -0.02648
C          6.66318        1.70244       -0.14324
O          7.58109        2.30977        0.40319
H          0.84679       -1.34957       -0.78313
H          1.03008        0.30852       -1.59698
H          2.57235       -0.80019        0.82332
H          2.84272        1.73400        1.05126
H          2.73091        1.88271       -0.72438
H          5.07162        2.67280        0.89831
H          4.95864        2.71480       -0.89855
H          6.87309        0.87937       -0.84750
