17
-1773.29
C          3.97130       -0.29955        2.25677
C          3.27167       -0.44720        0.93182
C          2.52106       -1.53176        0.67220
C          3.41108        0.59731       -0.07506
C          4.14486        1.71466        0.04897
C          4.24230        2.71217       -0.99303
C          4.98633        3.81725       -0.87198
H          3.62701        0.59980        2.77830
H          5.05601       -0.23562        2.11773
H          3.77964       -1.15112        2.91853
H          2.40164       -2.32420        1.40500
H          2.00524       -1.66628       -0.27347
H          2.86423        0.43502       -1.00381
H          4.70673        1.91133        0.95839
H          3.68345        2.54822       -1.91203
H          5.56477        4.02992        0.02228
H          5.03387        4.54225       -1.67807
