13
-1364.02
C          1.00000        0.00000        0.00000
C          2.44400        0.00000        0.00000
C          3.63416        0.00000        0.00000
C          5.07816        0.00000        0.00000
O          5.55952       -0.70100       -1.14334
C          5.61891        1.42091       -0.01423
O          6.08909        1.99661        0.96649
H          0.60600        1.02088        0.01179
H          0.60593       -0.52064        0.87818
H          0.60598       -0.50018       -0.89002
H          5.47541       -0.50441        0.88633
H          4.96709       -0.49452       -1.88639
H          5.51171        1.95681       -0.97299
