19
-1779.55
C          2.68302       -0.99915       -0.53381
C          2.23965        0.34935        0.01411
N          3.35889        1.29474       -0.05722
C          3.19958        2.33438       -1.07274
C          2.97868        2.63859        0.39019
C          3.97230        3.44259        1.16831
N          3.54849        4.83858        1.16884
H          1.86332       -1.72070       -0.46314
H          3.52965       -1.39779        0.03579
H          2.97935       -0.92415       -1.58440
H          1.94314        0.21996        1.06196
H          1.34989        0.68525       -0.53336
H          2.33903        2.30149       -1.72833
H          4.11507        2.67085       -1.54229
H          1.96375        2.78007        0.74735
H          4.98017        3.36357        0.74802
H          4.00869        3.07618        2.19966
H          3.61469        5.20581        0.22017
H          4.21068        5.37923        1.72561
