11
-1227.06
C          0.79685        0.57740        0.17548
C          2.09743        0.49511       -0.13609
O          2.66753       -0.63228       -0.74838
C          2.56472       -1.80306       -0.05549
O          2.06923       -1.99900        1.04348
C          2.95330        1.61862        0.03103
C          3.68306        2.56214        0.17475
H          0.37582        1.47713        0.61254
H          0.12322       -0.25673        0.01333
H          3.03155       -2.59577       -0.66160
H          4.33090        3.39691        0.30551
