14
-1420.72
C          0.96770       -0.07438       -0.03365
C          2.48782        0.01311        0.04632
C          3.11800       -0.76987       -1.02397
N          3.60780       -1.37797       -1.88442
C          2.92101        1.47479       -0.03443
N          2.82813        2.18298       -1.19727
N          3.36091        2.11381        1.00425
H          0.50105        0.52150        0.75848
H          0.62826       -1.11045        0.07558
H          0.58970        0.29859       -0.99285
H          2.80896       -0.39035        1.01413
H          2.97079        1.69368       -2.07523
H          3.32833        3.06669       -1.14833
H          3.38016        1.52048        1.83998
