14
-1399.92
C          0.99660       -0.05544        0.02173
C          2.52000        0.00000        0.00000
C          3.03619       -0.78742       -1.18463
N          2.90228       -0.38013       -2.40739
O          3.46125       -1.33305       -3.26636
C          3.00202        1.36117        0.00000
C          3.39930        2.48307        0.00000
H          0.59815        0.43326        0.91811
H          0.64308       -1.09263        0.01567
H          0.56077        0.44576       -0.85081
H          2.89395       -0.51221        0.89529
H          3.51146       -1.75929       -0.95667
H          3.34559       -0.91700       -4.14107
H          3.75424        3.48788       -0.00966
