15
-1438.88
C          0.81236       -0.08735       -0.04967
C          2.27384       -0.38121        0.09961
C          2.80754       -1.58405       -0.16306
O          3.01100        0.69610        0.63837
C          4.23858        0.95395        0.12965
N          4.98945        1.85642        0.67077
N          6.19470        1.98800        0.05675
H          0.66100        0.71559       -0.77738
H          0.39116        0.23093        0.90984
H          0.24925       -0.96266       -0.38912
H          2.19498       -2.39816       -0.53922
H          3.85478       -1.80240        0.01197
H          4.51361        0.35428       -0.75313
H          6.57731        2.90985        0.28908
H          6.86706        1.33936        0.47690
