14
-1383.11
C          0.39112        1.34915        0.32567
C          1.39470        0.35255       -0.22769
N          0.96357       -0.97227        0.14654
C         -0.36877       -1.25388        0.19462
N         -1.34866       -0.43418        0.09303
C         -1.00838        0.97534       -0.14794
H          0.64236        2.36548        0.00450
H          0.42110        1.33445        1.42255
H          2.39133        0.54837        0.17989
H          1.45601        0.42658       -1.31902
H          1.60484       -1.73569       -0.03374
H         -0.56903       -2.32751        0.35394
H         -1.11621        1.18435       -1.21877
H         -1.73965        1.60177        0.37501
