17
-1598.2
C          1.03342       -0.03329       -0.06321
N          2.47675        0.16938       -0.05766
C          3.29034       -1.05150        0.00358
C          3.93012       -1.36737       -1.35362
O          4.95232       -0.43190       -1.68462
C          3.00572        1.42977        0.00962
N          4.24008        1.77934        0.06275
H          0.48361        0.91013       -0.14625
H          0.71685       -0.52369        0.86332
H          0.74142       -0.66248       -0.91028
H          2.66528       -1.90182        0.30180
H          4.06185       -0.94122        0.77414
H          3.18798       -1.37102       -2.15844
H          4.39716       -2.35645       -1.31605
H          4.51404        0.43515       -1.80084
H          2.24246        2.22739       -0.00876
H          4.85211        0.95799        0.09072
