16
-1609.47
C          0.90196        0.22166        0.10903
C          2.29082       -0.23454       -0.30718
C          3.35178        0.81253       -0.01967
O          3.09467        1.89435        0.50843
C          4.77109        0.53253       -0.37938
C          5.20520       -0.60200       -0.93807
N          6.49856       -0.89081       -1.28995
H          0.16415       -0.55645       -0.10987
H          0.60958        1.13092       -0.42656
H          0.86359        0.43708        1.18207
H          2.28696       -0.44585       -1.38196
H          2.54262       -1.14888        0.23989
H          5.45443        1.34516       -0.15450
H          4.53005       -1.41967       -1.17901
H          7.20458       -0.29497       -0.86124
H          6.73915       -1.87946       -1.24977
