17
-1639.58
C          0.73580        1.27405       -0.20099
C         -0.72923        1.23853        0.22344
C         -1.40933       -0.04680       -0.24529
N         -0.70068       -1.24036        0.22329
C          0.68619       -1.24503       -0.24803
C          1.44942       -0.00675        0.22043
H          0.79704        1.38337       -1.29095
H          1.23458        2.14478        0.23827
H         -1.25460        2.10804       -0.18718
H         -0.79391        1.31184        1.31642
H         -2.43679       -0.07399        0.13450
H         -1.47986       -0.06283       -1.33965
H         -0.70196       -1.24450        1.24350
H          1.18446       -2.14444        0.12977
H          0.70568       -1.31270       -1.34244
H          1.54868       -0.02715        1.31295
H          2.46495       -0.01845       -0.19298
