14
-1446.35
O          1.03430        0.01322        0.17471
C          2.23001        0.01033        0.03904
C          3.44902       -1.01833        0.00327
C          4.22799       -0.81659        1.30362
C          4.25512        0.72486        1.34419
C          3.46529        1.02124        0.06899
N          3.99813        0.02906       -0.94914
H          3.27877       -2.00923       -0.41062
H          3.70193       -1.23423        2.16785
H          5.23611       -1.23997        1.25739
H          5.27825        1.11155        1.29595
H          3.76449        1.11789        2.23971
H          3.30955        2.03899       -0.28052
H          5.01305        0.02513       -1.05027
