18
-1716.28
C          2.92171       -1.10648       -0.72140
C          2.39167        0.09101        0.05085
C          3.39389        1.20342        0.09565
C          3.55405        2.22584       -1.00018
N          2.74256        2.19993       -2.21711
C          2.92651        2.61696        0.31533
O          3.74898        3.40875        1.18510
H          2.18510       -1.91583       -0.72220
H          3.84569       -1.48532       -0.27206
H          3.13998       -0.84138       -1.76078
H          2.16682       -0.21845        1.07822
H          1.44404        0.41849       -0.39096
H          4.29294        0.90096        0.62451
H          4.57057        2.57809       -1.16949
H          1.78702        1.90053       -2.03099
H          3.12235        1.52470       -2.88057
H          1.85825        2.80571        0.33468
H          3.76169        4.33570        0.88861
