14
-1359.51
C          0.70342        1.17578       -0.24506
C         -0.73993        1.17389        0.25790
O         -1.43124        0.00232       -0.19909
C         -0.74150       -1.17711        0.24245
C          0.70153       -1.17476       -0.26020
O          1.39258       -0.00355        0.19636
H          0.73607        1.20790       -1.34044
H          1.24114        2.04714        0.14065
H         -1.27577        2.05055       -0.11682
H         -0.77225        1.19182        1.35330
H         -0.77444       -1.20906        1.33795
H         -1.27958       -2.04837       -0.14319
H          1.23711       -2.05209        0.11380
H          0.73365       -1.19296       -1.35573
