11
-1094.86
O          0.95561        0.10437       -0.21238
S          2.39604       -0.01221       -0.14825
O          3.22185       -0.08487       -1.33366
O          2.77037       -1.26988        0.82295
C          3.35524       -0.87559        2.05965
C          3.49204        0.61137        2.03367
C          3.02513        1.18705        0.92138
H          4.33149       -1.35775        2.16097
H          2.70447       -1.19485        2.87854
H          3.93303        1.16122        2.85393
H          3.01296        2.23387        0.67266
