16
-1564.22
C         -0.93541       -0.06092       -1.11915
C         -0.54463        1.04388       -0.09208
C         -1.13979        0.03379        0.92534
N         -0.68515       -1.05698       -0.01435
C          0.78758       -1.21211        0.16435
C          1.64402        0.05255       -0.10683
O          0.88532        1.26082        0.06355
H         -1.98119       -0.02587       -1.45100
H         -0.30364       -0.16195       -2.00762
H         -1.07604        1.99434       -0.18320
H         -0.68917        0.02470        1.92321
H         -2.22959        0.08848        1.04240
H          0.97123       -1.55118        1.19197
H          1.14304       -2.02464       -0.48015
H          2.01219        0.04370       -1.13872
H          2.50778        0.08710        0.56392
