17
-1709.71
C          0.79349        0.10340       -0.07235
C          2.25872        0.00378        0.18091
C          3.17161       -0.91455       -0.60339
C          2.78582       -1.48934       -1.92694
C          2.97121       -0.33085       -2.90647
O          2.85693        0.87914       -2.13482
C          3.26041        0.57525       -0.77786
H          0.40433        1.03087        0.35974
H          0.27511       -0.73398        0.40525
H          0.53610        0.09915       -1.13522
H          2.47133        0.11358        1.23976
H          3.98079       -1.42699       -0.10445
H          3.40516       -2.34558       -2.21059
H          1.74376       -1.82522       -1.91379
H          3.97073       -0.34950       -3.35448
H          2.22269       -0.33707       -3.70339
H          4.12106        1.09466       -0.37275
