16
-1638.25
C         -1.04826       -0.03279        1.10740
C         -0.61504        1.01554        0.04559
C          0.90691        1.28865        0.00327
C          1.63975       -0.03135       -0.02927
C          0.92803       -1.17144       -0.03627
C         -0.55871       -1.03616        0.02453
N         -1.01102       -0.01615       -0.98884
H         -0.51891       -0.02206        2.06445
H         -2.12719       -0.06625        1.30265
H         -1.21133        1.93319        0.02186
H          1.16145        1.87628       -0.88571
H          1.20961        1.85872        0.88813
H          2.72297       -0.03812       -0.07569
H          1.38795       -2.15088       -0.08124
H         -1.08332       -1.99458       -0.01882
H         -2.01575       -0.04806       -1.15625
