17
-1636.06
O          0.52534        0.72963        0.54097
C          1.43884        1.30776       -0.38244
C          2.60092        1.95382        0.35852
O          3.47966        2.56105       -0.58747
C          4.59703        3.22028        0.03649
C          5.25003        4.28316       -0.80070
C          4.40285        4.67088        0.37600
H         -0.20849        0.36387        0.01763
H          0.91199        2.05211       -0.98824
H          1.80437        0.52805       -1.05902
H          3.14314        1.19865        0.94045
H          2.22503        2.70860        1.05952
H          5.25126        2.62902        0.67013
H          4.85445        4.46112       -1.79383
H          6.32335        4.40340       -0.71874
H          4.90057        5.05331        1.25888
H          3.43553        5.11680        0.17893
