13
-1371.53
C          0.91609       -0.02319       -0.00618
C          2.40588        0.05051       -0.00280
C          3.14510        1.21680       -0.00396
O          2.69186        2.46556       -0.00771
S          4.82549        0.92525        0.00031
C          4.59692       -0.76596        0.00335
C          3.26237       -1.10152        0.00124
H          0.45791        0.97036        0.00512
H          0.56203       -0.56823        0.87524
H          0.56521       -0.54737       -0.90081
H          3.49334        3.01680       -0.00716
H          5.44787       -1.43369        0.00649
H          2.90945       -2.12531        0.00260
