14
-1492.43
C          1.01006        0.01429        0.08626
C          2.49009       -0.00449       -0.02103
C          3.28959       -1.07036       -0.12518
N          4.58331       -0.66773       -0.20194
C          4.70105        0.71026       -0.15149
O          5.74312        1.34262       -0.20092
C          3.29436        1.27498       -0.02437
H          0.59288       -0.99748        0.06398
H          0.57478        0.57707       -0.74521
H          0.70183        0.48625        1.02432
H          3.02097       -2.11718       -0.15102
H          5.38741       -1.27320       -0.28693
H          3.05939        1.90011       -0.88861
H          3.19134        1.82150        0.91631
