16
-1583.64
C          1.31183       -0.48348       -0.38837
C          2.16937        0.66350       -0.89975
C          2.49299        1.63075        0.19487
C          3.81957        1.62203        0.86847
N          3.46957        2.65095       -0.07129
C          3.25036        3.95173        0.36436
O          2.72570        4.29863        1.41435
H          1.08885       -1.18388       -1.19868
H          0.36352       -0.11270        0.01277
H          1.82220       -1.03000        0.41027
H          1.62650        1.18881       -1.69493
H          3.08421        0.25692       -1.34811
H          1.62118        1.96794        0.74504
H          4.60420        0.97050        0.51356
H          3.88570        1.93754        1.90238
H          3.61804        4.67486       -0.38157
