17
-1640.5
C          1.00000        0.00000        0.00000
C          2.44400        0.00000        0.00000
C          3.63416        0.00000        0.00000
C          5.07816        0.00000        0.00000
N          5.57901       -0.76114       -1.15636
C          5.64386        1.44717       -0.02175
N          7.09597        1.48824       -0.27837
H          0.60602        1.02088        0.01141
H          0.60593       -0.52033        0.87836
H          0.60602       -0.50051       -0.88984
H          5.45020       -0.49844        0.90310
H          5.22395       -0.31719       -2.00360
H          5.15404       -1.68763       -1.13351
H          5.43201        1.95120        0.92877
H          5.15259        2.03362       -0.80880
H          7.25954        0.84321       -1.06050
H          7.57150        1.03316        0.50189
