21
-1987.3
C          1.45601        0.25890       -0.48663
C          2.95498        0.25218       -0.26244
O          3.39107        1.59884       -0.09486
C          4.80078        1.67759        0.11389
C          5.20730        3.14731        0.27599
C          6.69028        3.25538        0.62515
C          4.89819        3.95352       -0.98773
H          1.07726       -0.75784       -0.62265
H          1.20121        0.85251       -1.37075
H          0.94110        0.71736        0.36402
H          3.45849       -0.19534       -1.12645
H          3.19529       -0.32887        0.63469
H          5.32388        1.22717       -0.73817
H          5.05861        1.11672        1.02000
H          4.62030        3.58300        1.09492
H          7.31731        2.83856       -0.17015
H          6.91203        2.71417        1.55084
H          6.98002        4.30107        0.77229
H          5.43708        3.55476       -1.85368
H          5.19120        5.00099       -0.85998
H          3.82785        3.93567       -1.21663
