13
-1410.66
C          1.59650       -0.67467        0.12844
C          2.63252       -0.06164        0.71918
C          3.12895        1.31641        0.36945
C          3.06827        2.25244        1.57209
O          2.94726        1.91123        2.74627
C          4.51155        1.23692       -0.13635
C          5.63810        1.17273       -0.54610
H          1.28873       -1.66661        0.44681
H          1.03448       -0.21169       -0.67646
H          3.15075       -0.57453        1.52929
H          2.48405        1.76075       -0.39865
H          3.16479        3.32385        1.32139
H          6.64063        1.10619       -0.90440
