14
-1523.05
C          1.03570       -0.00755        0.24400
C          2.51909       -0.10169        0.00487
C          3.06681       -1.24195       -0.44778
C          3.36892        1.05276        0.26610
C          2.96026        2.24902        0.71776
C          3.87290        3.31577        0.94131
N          4.61387        4.18869        1.12506
H          0.59080        0.77279       -0.38277
H          0.82613        0.21983        1.29476
H          0.52222       -0.94606        0.00674
H          2.45989       -2.11942       -0.65179
H          4.13278       -1.34343       -0.63076
H          4.43356        0.91184        0.07024
H          1.91957        2.45762        0.93254
