16
-1583.12
O          4.51075        0.60564        1.93059
C          3.41574        1.12700        1.74980
C          2.99226        1.82779        0.48283
C          4.13261        2.04690       -0.50434
C          5.15738        3.02203        0.00161
C          5.68187        4.11071       -0.89805
N          4.77794        4.41809        0.20805
H          2.63628        1.07102        2.53026
H          2.53543        2.78144        0.76793
H          2.21581        1.20947        0.01933
H          3.70805        2.40298       -1.45133
H          4.63281        1.09605       -0.72602
H          5.83395        2.58507        0.72910
H          5.26244        4.22527       -1.89026
H          6.71181        4.42473       -0.78717
H          5.29680        4.81524        0.99598
