14
-1372.49
O          2.45106       -0.38939       -1.50830
C          2.39018        0.07727       -0.16485
C          3.30255        1.27508       -0.01724
C          3.42663        1.75718        1.40648
O          3.48007        3.18545        1.31909
N          2.80393        3.56592        0.13383
C          2.71038        2.50610       -0.59445
H          1.88293       -1.17829       -1.56839
H          2.71404       -0.73806        0.49026
H          1.34749        0.32450        0.06289
H          4.27298        1.11667       -0.49912
H          4.33711        1.38795        1.88714
H          2.56683        1.48581        2.02940
H          2.27206        2.50540       -1.60292
