17
-1700.43
O          2.80086       -0.46943       -0.91928
C          2.86730       -0.21705        0.48470
C          3.43966        1.18992        0.76216
C          3.19319        1.56261        2.20849
C          2.48537        2.62921        2.60449
C          4.90313        1.25595        0.35764
C          5.96026        1.61143        1.10097
H          2.46576       -1.37607       -1.02584
H          3.48394       -0.99649        0.94762
H          1.84866       -0.30344        0.87902
H          2.91358        1.90013        0.10864
H          3.62369        0.90967        2.96543
H          2.03842        3.31400        1.88984
H          2.34570        2.84379        3.65934
H          5.08794        0.98892       -0.68367
H          5.87140        1.90853        2.14033
H          6.95693        1.61994        0.66972
