18
-1699.17
C          2.11206       -0.99232       -0.41391
N          1.88308        0.37613        0.03225
C          3.12895        1.15757        0.07216
C          3.45851        2.07076       -1.07282
C          3.05307        2.65475        0.24893
O          4.11798        3.22734        1.03597
C          4.02208        4.64024        1.14572
H          1.15739       -1.52285       -0.47377
H          2.75743       -1.53327        0.28556
H          2.56945       -1.01371       -1.40774
H          1.46108        0.35226        0.96116
H          3.96434        0.67206        0.57395
H          2.75377        2.14235       -1.89232
H          4.49669        2.15294       -1.36972
H          2.05988        3.08753        0.32728
H          4.91515        5.00931        1.65620
H          3.14199        4.90947        1.73668
H          3.96578        5.09992        0.15488
