14
-1515.59
C          2.93125       -1.14993       -0.62391
C          2.31653       -0.00160       -0.31644
C          2.94926        1.28032       -0.03635
C          2.17430        2.33550        0.27633
C          4.45978        1.41506       -0.05322
C          4.98446        1.47691       -1.42613
N          5.42863        1.53047       -2.50017
H          2.34383       -2.04399       -0.81641
H          4.00661       -1.25679       -0.70695
H          1.22666       -0.02241       -0.27176
H          1.09013        2.26890        0.30836
H          2.59941        3.30952        0.50206
H          4.92274        0.58882        0.49922
H          4.76435        2.32595        0.47845
