12
-1248.94
C          1.00000        0.00000        0.00000
C          2.44400        0.00000        0.00000
C          3.63416        0.00000        0.00000
C          5.06386       -0.01739        0.01963
C          5.81122       -0.74554       -1.06344
O          5.65996        0.67931       -1.08344
H          0.60594        1.02085        0.01164
H          0.60592       -0.52054        0.87823
H          0.60600       -0.50033       -0.88995
H          5.54413        0.08300        0.98579
H          5.25328       -1.31755       -1.79412
H          6.79093       -1.14178       -0.83115
