16
-1617.64
C          0.82565        0.05815       -0.14653
C          2.31568        0.01610       -0.24323
C          3.12872        0.86423        0.40370
C          4.56704        0.80514        0.29552
C          5.38156        1.65276        0.94179
C          6.87181        1.60947        0.84412
H          0.45087       -0.89327        0.24343
H          0.39252        0.21781       -1.13882
H          0.47457        0.85868        0.51178
H          2.73053       -0.75886       -0.88323
H          2.70558        1.63732        1.04252
H          4.99063        0.03169       -0.34346
H          4.96803        2.42843        1.58210
H          7.22172        0.80802        0.18606
H          7.30530        1.45017        1.83620
H          7.24693        2.56025        0.45324
