15
-1418.86
C          0.99675        0.02575        0.06999
C          2.51003       -0.03638        0.00144
N          3.16981        0.98806        0.85024
C          4.18516       -0.01299        1.24181
C          3.20773       -1.13958        0.84127
O          3.75294       -2.26681        0.12434
H          0.55697       -0.81621       -0.47533
H          0.62350        0.94828       -0.38712
H          0.62863       -0.01608        1.10115
H          2.85879       -0.00109       -1.03936
H          2.59725        1.30399        1.63478
H          5.09893        0.03479        0.63764
H          4.46551        0.01299        2.29930
H          2.60600       -1.49004        1.68948
H          4.27634       -1.87947       -0.59900
