19
-1891.53
C          2.84520       -0.87212       -1.04418
C          2.44148       -0.05117        0.17231
C          3.00010        1.38581        0.16049
C          2.42711        2.17864        1.34181
C          4.53837        1.46877        0.12422
C          5.19175        0.82300        1.27448
C          5.72901        0.29953        2.21178
H          2.33439       -1.84038       -1.02893
H          3.92119       -1.06771       -1.05958
H          2.57102       -0.36025       -1.97200
H          2.75058       -0.57881        1.08228
H          1.34538       -0.00458        0.20073
H          2.63510        1.87380       -0.75386
H          2.70448        1.73348        2.30295
H          1.33320        2.20804        1.29198
H          2.78688        3.21293        1.32762
H          4.83935        2.52353        0.09050
H          4.91324        1.02173       -0.80358
H          6.20211       -0.16395        3.04664
