18
-1721.94
C          3.93646       -0.95681       -1.01481
C          2.88411       -0.23479       -0.18187
O          2.74978       -0.90757        1.06626
C          3.13592        1.21303        0.12788
C          4.24533        1.92581       -0.13316
C          4.40939        3.37188        0.20403
N          5.43240        3.50945        1.22728
H          4.06823       -0.48395       -1.99303
H          3.63905       -1.99940       -1.17356
H          4.90407       -0.98822       -0.50135
H          1.92088       -0.31220       -0.69823
H          3.58663       -0.77536        1.54492
H          2.30383        1.70842        0.62662
H          5.09957        1.46249       -0.62076
H          3.47170        3.81739        0.55335
H          4.71597        3.91636       -0.69533
H          5.09555        3.07022        2.08339
H          5.54596        4.49683        1.44990
