14
-1441.28
C          1.17702        0.10146       -0.23445
N          2.59929        0.18560        0.03801
C          3.37144       -1.04346        0.07396
C          3.75840       -1.46548       -1.27851
C          4.07943       -1.80478       -2.38436
C          3.23327        1.41051        0.04721
O          2.69307        2.50156       -0.07948
H          0.70230        1.08543       -0.19132
H          0.71117       -0.54909        0.51136
H          1.02750       -0.31907       -1.23294
H          2.78041       -1.81639        0.57655
H          4.27329       -0.87651        0.67402
H          4.36408       -2.09899       -3.36893
H          4.32194        1.32756        0.20475
