19
-1851.8
C          0.99898       -0.49374        0.02430
C          2.49740       -0.33065       -0.21020
C          2.91233       -1.07090       -1.47935
O          2.81266        1.04992       -0.41470
C          3.04295        1.88352        0.65347
C          3.34515        3.29218        0.22599
C          3.01436        1.54592        1.95292
H          0.67855        0.03987        0.92485
H          0.72818       -1.54849        0.13642
H          0.42463       -0.07186       -0.80867
H          3.07537       -0.75578        0.61750
H          2.39198       -0.67206       -2.35768
H          2.70187       -2.14237       -1.40257
H          3.98451       -0.93905       -1.66294
H          4.24306        3.31128       -0.39989
H          3.51425        3.95912        1.07764
H          2.50971        3.69574       -0.35501
H          2.79488        0.54746        2.30632
H          3.21309        2.28645        2.72263
