15
-1470.4
C          0.59033        2.34854       -0.03828
N          2.03662        2.54098       -0.10315
C          2.69129        1.43588       -0.07454
N          4.04373        1.33071       -0.13220
C          4.92459        2.48093       -0.14041
C          6.36991        2.03135       -0.18054
O          6.72841        0.85633       -0.12167
H          0.09411        3.30820       -0.21292
H          0.28644        1.98870        0.95030
H          0.23871        1.65078       -0.80643
H          2.19818        0.44885       -0.00182
H          4.49768        0.42748       -0.00986
H          4.78577        3.08352        0.76269
H          4.73928        3.09993       -1.02358
H          7.11149        2.84515       -0.25000
