15
-1430.54
C          2.70133       -0.80219       -0.98028
N          2.51884       -0.00366        0.22677
C          3.00478        1.37803        0.06443
C          2.52319        2.21510        1.24459
C          4.53186        1.44769        0.03240
O          5.28451        0.51184        0.29213
H          2.32646       -1.81453       -0.80255
H          3.75371       -0.88870       -1.26995
H          2.13536       -0.38552       -1.82108
H          3.05582       -0.44238        0.97880
H          2.62477        1.81384       -0.86575
H          2.85367        1.79053        2.19982
H          1.43008        2.28085        1.26063
H          2.92213        3.23547        1.19047
H          4.94497        2.43537       -0.22859
