15
-1400.78
C          2.14158       -0.85260        1.51601
C          2.88323       -0.61375        0.21487
C          2.66459        0.79756       -0.25039
N          3.65644        1.61843       -0.36214
O          3.16615        2.85411       -0.81056
C          4.26482        3.74735       -0.95196
H          2.29296       -1.88039        1.85899
H          1.06638       -0.68758        1.39123
H          2.49322       -0.17248        2.29845
H          2.50535       -1.28788       -0.56071
H          3.95394       -0.80119        0.34691
H          1.62825        1.09569       -0.49036
H          3.88046        4.72085       -1.26755
H          4.95708        3.37690       -1.71438
H          4.78425        3.86643        0.00428
