17
-1652.52
C          1.99312       -0.90306        1.28260
C          3.41998       -0.67635        0.85022
C          4.36819       -1.58311        1.14678
C          3.65311        0.59851        0.06498
O          3.30838        1.71440        0.90157
C          5.07640        0.86030       -0.46268
O          5.11587        2.11199       -1.15402
H          1.66459       -0.10821        1.95997
H          1.86719       -1.85578        1.80878
H          1.32944       -0.91630        0.41168
H          4.13042       -2.48493        1.70482
H          5.40496       -1.47313        0.84544
H          2.96289        0.62914       -0.78724
H          3.70253        1.53953        1.77512
H          5.40150        0.07793       -1.15421
H          5.79415        0.93239        0.36115
H          4.54006        2.71192       -0.63880
