18
-1760.27
C          0.75314        1.06848       -0.44300
C         -0.49648        0.33098       -0.04562
C          0.82361       -0.38635       -0.06735
C          1.56708       -0.88845        1.14895
C          1.38844       -0.25788        2.55021
N          1.54809       -1.60825        3.14040
C          1.09455       -2.18255        1.85171
H          0.87890        1.32900       -1.48740
H          1.14752        1.80421        0.24794
H         -1.21456        0.09475       -0.82315
H         -0.95141        0.57910        0.90572
H          0.98188       -1.09553       -0.87461
H          2.63593       -0.95115        0.88415
H          0.40610        0.18257        2.75236
H          2.15766        0.46249        2.84341
H          2.51897       -1.83485        3.35717
H          1.61130       -3.09876        1.55148
H          0.01330       -2.36011        1.81096
