19
-1850.55
C          0.91780       -0.03189        0.11561
C          2.43704       -0.01786       -0.03546
C          2.84307        0.04601       -1.50905
C          3.14610        1.05067        0.84893
C          4.20462       -0.01161        1.20330
C          3.16559       -1.09581        0.83755
O          3.65725       -2.27115        0.16878
H          0.61595       -0.05414        1.16829
H          0.48634       -0.91222       -0.37234
H          0.47199        0.86022       -0.33722
H          3.93053        0.08128       -1.63447
H          2.42861        0.93975       -1.98810
H          2.47299       -0.82986       -2.05302
H          2.56340        1.38119        1.71757
H          3.52631        1.93679        0.33235
H          5.08840        0.00476        0.55608
H          4.53446       -0.00816        2.24580
H          2.57828       -1.40039        1.71442
H          4.27085       -1.95242       -0.51383
