15
-1536.19
O          1.13841        0.06283        0.51029
C          2.30136        0.00518        0.11072
C          3.02668       -1.31352       -0.01505
C          3.99569       -1.27274       -1.18825
C          4.86003       -0.01953       -1.13878
O          4.03510        1.14241       -1.20944
C          3.15107        1.24994       -0.10127
H          2.29766       -2.11728       -0.15768
H          3.56381       -1.49177        0.92278
H          4.62474       -2.16889       -1.18601
H          3.41844       -1.26990       -2.12046
H          5.47389        0.01577       -0.23126
H          5.53513        0.00049       -2.00024
H          3.72439        1.44683        0.81081
H          2.48792        2.09997       -0.28698
