14
-1430.49
C          0.95549       -0.39215        0.01855
C          2.34768        0.21875        0.09058
N          2.30221        1.67427        0.07587
C          2.27972        2.33605       -1.13462
O          2.29241        1.81451       -2.24237
C          2.15486        2.35627        1.26666
O          2.05212        1.85362        2.37773
H          1.01907       -1.48444        0.03096
H          0.43906       -0.08967       -0.89810
H          0.34136       -0.07516        0.86758
H          2.94426       -0.13171       -0.75933
H          2.84660       -0.11756        1.00670
H          2.23389        3.43284       -1.02773
H          2.12169        3.45132        1.13721
