18
-1720.75
C          1.00349        0.03647        0.16390
N          2.45528        0.01301       -0.00255
C          2.92388       -1.27205       -0.56388
C          2.64038       -1.44425       -2.06557
O          3.17640       -0.35530       -2.82878
C          2.64335        0.89394       -2.36984
C          2.92671        1.11078       -0.87389
H          0.68981        0.98082        0.62175
H          0.68745       -0.75977        0.84636
H          0.45543       -0.08398       -0.77534
H          2.50347       -2.11310       -0.00105
H          4.00989       -1.31478       -0.41178
H          3.11658       -2.36157       -2.42595
H          1.56675       -1.53116       -2.26861
H          3.12225        1.68711       -2.95239
H          1.57037        0.92887       -2.58876
H          4.01286        1.18872       -0.73699
H          2.50823        2.06899       -0.54490
