15
-1479.11
C          1.14641        0.04147       -0.48804
N          2.38465        0.04770        0.27856
C          3.05384       -1.23677        0.41994
C          3.10897        1.21536        0.39709
N          2.70809        2.39011        0.04563
C          3.59276        3.41746        0.25488
O          4.73173        3.33026        0.70316
H          0.51494        0.89654       -0.22420
H          0.56212       -0.86248       -0.28616
H          1.36211        0.08068       -1.56070
H          2.33394       -2.03671        0.62189
H          3.76270       -1.21974        1.25446
H          3.59981       -1.48301       -0.49620
H          4.10685        1.04005        0.84353
H          3.19318        4.40604       -0.03005
