17
-1741.42
C          1.91695       -0.00027       -0.52667
C          0.92833        0.77994        0.28603
C          0.92913       -0.77986        0.28592
C         -0.57039       -1.01460       -0.03913
C         -1.02959        0.00009       -1.18482
C         -0.56995        1.01481       -0.03894
C         -1.41979       -0.00007        0.86087
H          1.82110        0.00013       -1.60606
H          2.95110       -0.00033       -0.19829
H          1.21946        1.27904        1.20075
H          1.21927       -1.27934        1.20045
H         -0.91157       -2.04772       -0.10373
H         -2.09239        0.00014       -1.45229
H         -0.43829        0.00020       -2.10381
H         -0.91136        2.04790       -0.10338
H         -1.18888       -0.00009        1.92996
H         -2.50677       -0.00002        0.72587
