11
-1293.74
N          0.90630        0.08073       -0.00928
C          2.06738        0.04343       -0.00484
C          3.49626       -0.00255        0.00063
C          4.33326        1.09428        0.00409
N          5.62780        0.63941        0.00894
C          5.62723       -0.73210        0.00862
C          4.31646       -1.15863        0.00350
H          4.12157        2.15588        0.00352
H          6.45490        1.22423        0.01225
H          6.55743       -1.28548        0.01206
H          3.98883       -2.19099        0.00201
