15
-1503.63
N          0.99196        0.04499        0.07332
C          2.45335        0.06232        0.00339
C          3.05760        1.18403        0.84910
C          4.41039        0.62556        1.25413
N          4.17275       -0.78125        1.37105
C          3.07540       -1.18595        0.63335
O          2.71814       -2.34220        0.47711
H          0.67009       -0.86705       -0.25985
H          0.60968        0.73863       -0.56587
H          2.79532        0.11700       -1.03644
H          2.45468        1.35989        1.75032
H          3.13392        2.13268        0.30911
H          5.16531        0.78216        0.47731
H          4.76912        1.02645        2.20504
H          4.78299       -1.46102        1.80819
