17
-1724.73
O          0.99399        0.04200        0.07754
C          2.40398        0.01938        0.00949
C          2.99176        1.13462        0.86411
C          4.39320        0.63512        1.17796
C          4.20130       -0.85360        1.45139
C          2.99468       -1.22283        0.62546
C          2.52654       -2.47484        0.52837
H          0.67550       -0.71294       -0.44200
H          2.72851        0.12267       -1.03249
H          2.41028        1.27832        1.78392
H          3.00141        2.09321        0.33521
H          5.04930        0.78075        0.31119
H          4.83940        1.15758        2.02987
H          5.09178       -1.42204        1.16730
H          3.99202       -1.01763        2.51436
H          1.64191       -2.71723       -0.05134
H          3.01891       -3.29659        1.04001
