16
-1647.3
N          0.98808        0.04137       -0.55383
C          2.19771       -0.00077        0.26634
C          3.43205        0.75092       -0.15753
C          3.69750        1.20605       -1.58074
C          3.85412       -0.06467       -2.37762
C          3.67492       -1.12471       -1.57272
C          3.41844       -0.76845       -0.16662
H          0.38398        0.81151       -0.27554
H          0.44626       -0.81333       -0.44178
H          1.99659       -0.01721        1.33660
H          4.01928        1.26843        0.58768
H          4.62036        1.79299       -1.62728
H          2.87107        1.81253       -1.96299
H          4.04378       -0.10166       -3.43892
H          3.70842       -2.15277       -1.90785
H          4.00558       -1.28776        0.57963
