20
-1917.03
C          1.18212        0.17876        0.19286
C          2.66670       -0.03110       -0.10279
C          2.84709       -0.76068       -1.43361
C          3.38913        1.29232       -0.12951
C          3.86632        1.92011        1.15553
C          4.86155        1.35401        0.18398
N          5.71831        2.25976       -0.57293
H          1.04467        0.68080        1.15675
H          0.65217       -0.77872        0.23212
H          0.70684        0.80082       -0.57395
H          3.08394       -0.66451        0.69033
H          2.44158       -0.17590       -2.26694
H          2.34043       -1.73121       -1.41926
H          3.90845       -0.93658       -1.63993
H          2.99660        1.95902       -0.89028
H          3.71560        1.38523        2.08641
H          3.79146        2.99648        1.25583
H          5.35027        0.42911        0.48442
H          5.23217        3.12359       -0.80966
H          5.98764        1.83841       -1.46149
