17
-1605.15
C          1.47355       -0.30895        0.35369
C          2.96895       -0.19192        0.10841
C          3.41231        1.24952       -0.07048
O          2.62122        2.19455       -0.04738
N          4.78235        1.44777       -0.26925
C          5.80493        0.41544       -0.17693
N          5.24466        2.79177       -0.35033
H          1.18716       -1.35924        0.47173
H          0.90300        0.10857       -0.48291
H          1.18044        0.22942        1.26162
H          3.22423       -0.75294       -0.79646
H          3.50361       -0.62683        0.95935
H          5.51592       -0.44520       -0.78470
H          5.89473        0.10355        0.86721
H          6.76630        0.79617       -0.53457
H          4.64354        3.34084        0.27807
H          4.97610        3.13599       -1.27707
