13
-1376.17
C          0.93155       -0.08261        0.10544
C          2.26473       -0.05134       -0.02723
C          3.05017        1.23929       -0.10142
O          4.44560        1.16465        0.23027
C          5.01114       -0.06903        0.09568
C          4.32195       -1.19598       -0.08579
O          2.95681       -1.24971       -0.13765
H          0.34411        0.82660        0.17120
H          0.40189       -1.02900        0.13696
H          2.61258        1.98089        0.57746
H          2.97936        1.64408       -1.11805
H          6.08693       -0.02970        0.18660
H          4.76511       -2.17625       -0.16937
