15
-1543.82
C          1.81682       -0.63224       -0.99488
C          2.90525       -0.27721        0.00598
C          3.05324        1.21188        0.14707
C          4.17621        1.87191       -0.18149
C          4.38782        3.32302       -0.01999
O          3.27275        4.06434       -0.14783
O          5.49605        3.79917        0.16470
H          1.70856       -1.71927       -1.06597
H          2.05840       -0.25038       -1.99268
H          0.84940       -0.21519       -0.69523
H          3.84852       -0.73962       -0.30747
H          2.65307       -0.69975        0.98532
H          2.20384        1.72954        0.58644
H          5.05469        1.34320       -0.54002
H          2.49964        3.56026       -0.45756
