16
-1480.89
N          0.47091        0.20197        0.01872
C          1.83666       -0.01652       -0.46794
C          2.88926        0.46335        0.54688
N          4.24639        0.26756        0.01409
C          5.25955        0.14815        1.05789
C          4.79393       -1.05812        0.28527
H         -0.18568       -0.12555       -0.68948
H          0.30615        1.20433        0.11093
H          1.96262        0.50901       -1.42187
H          1.96653       -1.08712       -0.66109
H          2.72907       -0.04448        1.50774
H          2.74987        1.53610        0.73094
H          4.95914        0.24757        2.09395
H          6.23464        0.55783        0.82014
H          5.45038       -1.45974       -0.47711
H          4.16773       -1.78761        0.78591
