13
-1365.77
C          0.99293       -0.20736        0.00057
C          2.47904       -0.03834       -0.00030
C          3.13902        1.13799        0.00000
C          2.45737        2.47952        0.00267
C          4.54502        1.13799        0.00000
N          5.69603        1.13799        0.00000
H          0.74136       -1.27265       -0.01284
H          0.54530        0.24854       -0.88733
H          0.54977        0.22578        0.90183
H          3.04933       -0.96772       -0.00081
H          1.36659        2.40659       -0.00005
H          2.74943        3.05475       -0.88239
H          2.74535        3.04881        0.89288
