16
-1656.66
C          1.04980       -0.02600        0.42834
C          2.52000        0.00000        0.00000
C          2.72838       -0.62806       -1.39106
C          2.35182       -2.08470       -1.45476
C          1.39734       -2.57573       -2.25575
C          3.00202        1.36117        0.00000
N          3.38623        2.44616        0.00000
H          0.91531        0.46779        1.39832
H          0.67994       -1.05158        0.53050
H          0.41251        0.49440       -0.29660
H          3.09418       -0.57762        0.73607
H          3.78659       -0.54828       -1.67341
H          2.17137       -0.05628       -2.14611
H          2.90659       -2.76974       -0.81598
H          0.82124       -1.93918       -2.91986
H          1.17238       -3.63840       -2.26562
