17
-1637.22
C          2.09603       -0.11028       -1.34101
C          3.10877        0.11998       -0.23244
N          3.52634        1.52258       -0.27298
C          4.36430        1.82700        0.65905
N          4.96567        3.04602        0.91985
C          5.30769        3.87397       -0.24849
C          4.16709        4.24924        0.63297
H          1.76993       -1.15447       -1.35036
H          2.52720        0.12526       -2.31910
H          1.21530        0.52459       -1.20234
H          3.96958       -0.54161       -0.38621
H          2.64812       -0.12086        0.73307
H          4.70679        1.07665        1.39522
H          5.10479        3.42655       -1.21225
H          6.24866        4.39173       -0.13376
H          4.30828        5.03035        1.36553
H          3.15622        4.06850        0.29297
