17
-1649.87
C          0.95234       -0.04811        0.01634
C          2.46789        0.00905        0.03093
C          3.15601        1.05068        0.95398
O          2.39885        1.56265        2.06879
C          4.21313       -0.02628        1.28207
C          3.19179       -1.09771        0.84307
O          3.70570       -2.21293        0.09461
H          0.60733       -0.89475       -0.58574
H          0.53796        0.86576       -0.42082
H          0.53740       -0.16177        1.02265
H          2.84109        0.08101       -1.00160
H          3.57269        1.89707        0.39622
H          2.10360        0.78986        2.57980
H          5.11096        0.02974        0.65621
H          4.51925       -0.08188        2.33054
H          2.59743       -1.46588        1.68935
H          4.22596       -1.83153       -0.63312
