15
-1419.64
N          1.02232        0.00856        0.14495
C          2.46004        0.02517       -0.08037
C          3.10903        1.06602        0.85146
C          4.14770       -0.01596        1.23229
O          5.40514        0.01830        0.52519
C          3.12120       -1.07681        0.76954
H          0.54739       -0.78789       -0.27992
H          0.54053        0.83725       -0.20278
H          2.78151        0.06733       -1.12525
H          2.50657        1.39869        1.70586
H          3.51337        1.94853        0.34667
H          4.34837       -0.05577        2.30864
H          5.18010        0.05091       -0.41958
H          3.53497       -1.91362        0.19889
H          2.52268       -1.48053        1.59565
