19
-1908.75
C          0.92327       -0.15901       -0.05842
C          2.40856        0.01065       -0.13069
C          3.11902        1.14518        0.03985
C          2.47593        2.49322        0.26889
C          4.58807        1.13309       -0.04278
C          5.23307        0.28122       -1.10704
C          5.34955        1.89047        0.76574
H          0.68621       -1.00819        0.59105
H          0.52394       -0.37153       -1.05453
H          0.40292        0.71035        0.34900
H          2.93557       -0.92585       -0.30679
H          1.43878        2.52890       -0.07220
H          3.00113        3.27590       -0.29083
H          2.49454        2.75281        1.33215
H          4.75893        0.45169       -2.07975
H          5.15915       -0.78222       -0.85899
H          6.29732        0.51412       -1.22434
H          4.92514        2.51849        1.54331
H          6.43226        1.88854        0.68707
