9
-1053.94
C          0.95471       -0.04297       -0.00000
C          2.29143       -0.02063       -0.00000
C          3.01318        1.20193       -0.00000
C          3.62386        2.23601       -0.00000
C          4.39949        3.55838       -0.00000
N          4.98638        4.55922       -0.00000
H          0.41784       -0.98634       -0.00000
H          0.36371        0.86807       -0.00000
H          2.85337       -0.95047       -0.00000
