15
-1543.54
C          0.90394       -0.17850       -0.00151
C          2.37180        0.15388        0.17052
C          3.50179       -0.69057       -0.56545
O          4.36309        0.52930       -0.22975
C          3.10174        1.19173       -0.78936
C          2.96395        0.68950       -2.18194
C          3.24092       -0.61230       -2.02686
H          0.28344        0.65168        0.35068
H          0.64425       -1.06336        0.58870
H          0.62935       -0.38098       -1.04042
H          2.57963        0.32671        1.23722
H          3.86740       -1.61631       -0.12258
H          3.04369        2.26010       -0.58375
H          2.72464        1.24096       -3.07478
H          3.28598       -1.39808       -2.76078
