17
-1684.98
C          2.73275        0.89644       -3.26272
C          2.89674        1.38750       -1.83760
O          4.13996        0.90019       -1.33680
C          4.41401        1.33855        0.00000
C          5.47118        0.39777        0.56852
C          4.89602        2.69973        0.00000
C          5.29331        3.82162        0.00000
H          1.78384        1.23726       -3.68630
H          2.76511       -0.19735       -3.30106
H          3.55133        1.26176       -3.89200
H          2.07687        1.00756       -1.21867
H          2.87949        2.48221       -1.82394
H          3.50704        1.24169        0.60899
H          6.38820        0.42061       -0.03219
H          5.11018       -0.63645        0.55112
H          5.72950        0.65945        1.59997
H          5.65349        4.82445       -0.00663
