14
-1361.93
C          1.27016       -0.26082        0.45540
C          2.72926        0.05810        0.17123
O          2.96156       -0.13778       -1.22396
N          4.34327       -0.22939       -1.45858
C          4.53579       -0.37671       -2.72620
C          3.07276        1.49364        0.52623
O          2.33627        2.26137        1.14297
H          1.02535       -0.11166        1.51194
H          1.04577       -1.29881        0.18736
H          0.60551        0.37219       -0.14372
H          3.37201       -0.60825        0.75878
H          5.56027       -0.46182       -3.11972
H          3.71163       -0.41904       -3.45803
H          4.09074        1.81432        0.24650
