14
-1511.
C          2.67352        0.41472        0.88075
C          2.32187        0.08203       -0.59723
C          2.66679        1.48819       -0.79641
C          2.49641        2.67429       -1.40709
C          2.99488        3.60229       -0.42523
C          3.37761        2.88817        0.71359
N          3.32433        1.57868        0.36753
H          3.35653       -0.27633        1.37986
H          1.84929        0.65110        1.56390
H          1.30876       -0.19889       -0.88127
H          3.02263       -0.62504       -1.06070
H          1.96781        2.90351       -2.32203
H          2.96025        4.68222       -0.49691
H          3.70299        3.21183        1.69291
