14
-1485.27
C          0.93372       -0.03563       -0.00216
C          2.41258        0.06504       -0.00301
C          3.25256        1.15027       -0.00142
O          2.81429        2.41609        0.00170
C          4.58673        0.70129       -0.00365
C          4.53472       -0.67564       -0.00669
N          3.21504       -1.05307       -0.00630
H          0.46676        0.95415        0.01094
H          0.58662       -0.58410        0.87941
H          0.58454       -0.56176       -0.89644
H          3.57174        3.02407        0.00222
H          5.48783        1.29741       -0.00315
H          5.32053       -1.41995       -0.00917
H          2.88128       -2.00822       -0.00819
