13
-1317.19
O          1.02998        0.09567       -0.33722
N          2.36709       -0.02145        0.06582
C          2.94539        1.13610        0.09555
C          4.40288        1.28580        0.51771
N          4.59486        2.72543        0.32651
C          3.39519        3.31198       -0.01394
C          2.37482        2.47197       -0.21762
H          0.72856       -0.83196       -0.33252
H          5.05948        0.70599       -0.13549
H          4.52620        0.99804        1.56542
H          5.12390        3.21405        1.04463
H          3.35307        4.39221       -0.09018
H          1.35730        2.67561       -0.49033
