15
-1495.08
C          1.13270        0.01789        0.40149
C          2.59731       -0.22224        0.07706
C          3.40837        1.05962        0.10105
O          2.92746        2.15894        0.36935
N          4.75373        0.96695       -0.19298
C          5.48396       -0.13363       -0.53088
N          6.73785       -0.04768       -0.77772
H          0.58246       -0.92843        0.40170
H          0.67091        0.68150       -0.33754
H          1.01646        0.48130        1.38708
H          2.67323       -0.67007       -0.91911
H          3.01838       -0.91543        0.81272
H          5.22443        1.85935       -0.14896
H          4.94955       -1.09236       -0.58149
H          7.07520        0.91268       -0.68453
