17
-1722.95
C          2.64572       -0.47192        1.50880
C          2.60913        0.01918        0.06937
C          3.05239        1.43507       -0.06244
C          4.12535        1.90264       -0.69291
O          4.30783        3.26686       -0.66062
C          3.09665        3.76325       -0.05275
C          2.32181        2.58179        0.52872
H          2.34593       -1.52392        1.55558
H          1.96042        0.09936        2.14384
H          3.65313       -0.38829        1.93062
H          1.59126       -0.07906       -0.32534
H          3.24581       -0.63214       -0.54157
H          4.89510        1.35642       -1.21274
H          2.51300        4.27640       -0.82628
H          3.35848        4.49495        0.71887
H          1.26849        2.61634        0.23515
H          2.38297        2.57280        1.62175
