19
-1783.54
C          4.12242        6.40347        1.41931
O          5.26909        5.78107        0.85525
C          5.49742        6.21315       -0.48188
O          4.54967        5.68601       -1.40217
C          4.62122        4.26817       -1.57248
C          3.34814        3.85244       -2.30616
C          5.84533        3.86519       -2.39060
H          3.97160        5.99526        2.42102
H          3.23044        6.19886        0.82195
H          4.27947        7.48243        1.50521
H          6.51411        5.92960       -0.76914
H          5.45168        7.30691       -0.53400
H          4.63625        3.76783       -0.59634
H          3.26464        4.37003       -3.26887
H          2.46430        4.13012       -1.72234
H          3.32169        2.77352       -2.48474
H          5.92253        4.46702       -3.30184
H          5.80869        2.80629       -2.66739
H          6.76757        4.02427       -1.82427
