13
-1322.44
C          1.09060       -0.10214        0.26072
C          2.38377        0.01444       -0.04724
C          3.21348        1.27507       -0.12477
N          4.50100        0.74747       -0.51436
C          4.47007       -0.62996       -0.64498
S          5.74001       -1.58762       -1.06872
N          3.18754       -1.04861       -0.35836
H          0.59547       -1.06682        0.28298
H          0.49289        0.77164        0.49783
H          3.31517        1.77294        0.84272
H          2.86493        1.96451       -0.89760
H          5.33772        1.29192       -0.67414
H          2.90210       -2.01748       -0.38626
