15
-1579.87
C          1.07390       -0.11718       -0.36049
C          2.40502        0.01053       -0.30296
C          3.11085        1.25507       -0.17041
C          4.43643        1.38603       -0.11282
C          4.80370        2.81357        0.02379
O          3.56596        3.54215        0.04395
C          2.48047        2.60179       -0.07559
H          0.62338       -1.10002       -0.46144
H          0.39832        0.72970       -0.31063
H          3.01238       -0.89075       -0.35993
H          5.15877        0.58490       -0.15712
H          5.34193        3.00690        0.95599
H          5.40376        3.16113       -0.82191
H          1.90561        2.85450       -0.97184
H          1.84337        2.70001        0.80874
