16
-1507.55
C          0.96609       -0.44087        0.07454
C          2.45646       -0.29884       -0.21193
C          2.87738       -1.21409       -1.35545
O          2.73578        1.05404       -0.62658
C          2.99673        1.97553        0.32956
N          3.02115        1.72482        1.59242
O          3.32846        2.90408        2.28325
H          0.66179        0.21922        0.89303
H          0.71180       -1.46932        0.34824
H          0.37057       -0.15244       -0.79857
H          3.04389       -0.56385        0.67513
H          2.34538       -0.96136       -2.27925
H          2.68680       -2.26447       -1.11546
H          3.94563       -1.09260       -1.56472
H          3.18652        2.96126       -0.12495
H          3.33574        2.60682        3.21268
