14
-1411.64
O          0.84672       -0.03589        0.16796
C          2.28405       -0.01271        0.00812
C          3.04981        1.03391        0.86030
N          3.98275       -0.00757        1.32975
C          3.08018       -1.06136        0.82940
C          2.58177        0.01255       -1.41404
C          2.82561        0.03340       -2.59053
H          0.70756       -0.05203        1.12963
H          2.45617        1.47519        1.66940
H          3.52940        1.85299        0.31363
H          4.87810        0.01268        0.83681
H          3.58309       -1.84973        0.25903
H          2.49993       -1.54333        1.62489
H          3.03178        0.05176       -3.63684
