17
-1719.24
C          0.81125        0.24093       -0.08021
C          2.27506        0.06113        0.23338
O          2.68256       -1.04507        0.61155
C          3.20676        1.28741        0.08707
C          2.62209        2.72194        0.21325
C          3.93927        3.12880        0.89972
C          4.09544        1.65270        1.30894
H          0.70109        0.74998       -1.04101
H          0.33304        0.81823        0.71413
H          0.32655       -0.73705       -0.15208
H          3.81168        1.18575       -0.82691
H          1.74782        2.80740        0.86843
H          2.40904        3.23042       -0.73078
H          4.71051        3.47783        0.20411
H          3.84752        3.84370        1.72074
H          5.11722        1.26414        1.28525
H          3.64606        1.41261        2.28012
