17
-1624.37
C          0.97627       -0.19802       -0.25455
C          2.45887        0.07070        0.00985
N          3.29022       -0.73817       -0.87906
C          2.81023        1.54015       -0.11151
C          2.69115        2.19789       -1.46098
C          3.21773        2.24957        0.95653
H          0.34613        0.41011        0.40412
H          0.73377       -1.25004       -0.06532
H          0.69379        0.02432       -1.28960
H          2.67188       -0.26316        1.03351
H          2.99778       -0.59087       -1.84291
H          3.11917       -1.72366       -0.68754
H          1.66742        2.12431       -1.83988
H          3.36736        1.73133       -2.18384
H          2.94528        3.26287       -1.42023
H          3.31803        1.79404        1.93716
H          3.47554        3.30137        0.87799
