18
-1727.42
C          1.09832        0.28397       -0.47472
C          2.58825        0.13474       -0.20867
N          3.20566        1.45727       -0.09995
C          4.64415        1.33984        0.16601
C          5.27256        2.72704        0.22171
C          6.75369        2.66055        0.49046
O          7.38058        1.62717        0.69944
H          0.62773       -0.70206       -0.54894
H          0.91524        0.81646       -1.41471
H          0.60213        0.83343        0.33311
H          3.04087       -0.42981       -1.03125
H          2.73212       -0.43363        0.71702
H          2.75827        1.97329        0.65795
H          5.12593        0.75428       -0.62678
H          4.81165        0.81548        1.11510
H          4.81986        3.33014        1.01666
H          5.13340        3.25296       -0.72945
H          7.26777        3.63700        0.50468
