17
-1611.5
C          1.04259       -0.43576        0.29051
C          2.40361       -0.06115       -0.29259
C          2.79813       -1.04630       -1.39111
C          2.38808        1.36994       -0.82427
O          2.53855        1.66327       -2.00746
N          2.19623        2.32906        0.16497
N          2.24110        3.69664       -0.18052
H          0.78137        0.20367        1.14001
H          1.04084       -1.47216        0.64408
H          0.24944       -0.32758       -0.45763
H          3.16111       -0.11180        0.49965
H          2.07482       -1.03820       -2.21413
H          2.85469       -2.06677       -0.99805
H          3.77840       -0.79195       -1.80879
H          2.22464        2.07260        1.14945
H          1.32936        3.93900       -0.58168
H          2.87470        3.77810       -0.98803
