18
-1714.18
C          2.37017       -0.45673       -1.52132
C          2.42923        0.06418       -0.09349
C          3.33032        1.28946        0.00591
N          2.72353        2.52010       -0.56287
C          3.23518        3.29543        0.58527
C          3.37457        1.98783        1.39211
O          4.57578        1.81834        2.17524
H          1.75018       -1.35731       -1.57164
H          3.37039       -0.70931       -1.88871
H          1.94211        0.28861       -2.19941
H          2.82389       -0.72796        0.55342
H          1.41471        0.28611        0.25849
H          4.33371        1.09094       -0.39648
H          1.70359        2.49511       -0.60649
H          4.18191        3.80692        0.37755
H          2.52794        4.02405        0.99232
H          2.49216        1.78551        2.01292
H          5.30640        2.02578        1.56671
