13
-1326.82
N          1.01432       -0.01978        0.01560
C          2.47000        0.00000        0.00000
C          2.95202        1.36117        0.00000
C          3.34930        2.48307        0.00000
C          3.81863        3.80842        0.00000
C          2.97879        4.84881        0.00479
H          0.69403       -0.98092       -0.08135
H          0.67050        0.48297       -0.80028
H          2.82941       -0.53205       -0.88723
H          2.84379       -0.53891        0.87652
H          4.89080        3.97524       -0.00247
H          1.90148        4.71153        0.01063
H          3.35651        5.86565        0.00639
