16
-1486.89
C          0.87414       -0.02576        0.06205
C          2.38196        0.00046        0.00516
N          2.89427        0.03767       -1.38154
C          3.14631        1.03449        0.87018
N          4.15813       -0.00273        1.18999
C          3.17448       -1.05258        0.81926
H          0.51649       -0.05742        1.09715
H          0.47274       -0.90623       -0.45142
H          0.44333        0.86585       -0.40676
H          3.91041        0.04241       -1.44651
H          2.57701        0.84884       -1.91039
H          2.59819        1.37572        1.75725
H          3.54131        1.91861        0.35894
H          4.96337        0.01678        0.56618
H          3.59366       -1.89977        0.26632
H          2.63685       -1.45115        1.68890
