15
-1465.83
O          4.22358       -1.14109       -0.59181
C          3.16927       -0.57720        0.16932
C          3.29948        0.91216        0.25582
C          4.23817        1.65647       -0.34649
N          4.37337        3.01939       -0.26831
C          5.27981        3.84423       -0.87207
N          6.21593        3.56791       -1.70760
H          4.09665       -2.10442       -0.57787
H          3.19676       -1.00728        1.17537
H          2.21707       -0.83865       -0.30250
H          2.54877        1.40078        0.87026
H          4.98929        1.17079       -0.96523
H          3.69667        3.47320        0.33641
H          5.14348        4.89587       -0.56576
H          6.21448        2.56401       -1.90083
