17
-1580.34
C          0.98648       -0.13058       -0.15848
C          2.49316        0.03083       -0.00364
N          3.22396       -0.77143       -0.99481
C          2.89846        1.50566       -0.10956
C          2.78035        2.20869       -1.44548
N          3.31045        2.10245        0.97364
O          3.63807        3.44182        0.72978
H          0.45505        0.48524        0.57575
H          0.68630       -1.17323       -0.00457
H          0.64021        0.17625       -1.15171
H          2.78340       -0.32330        0.99300
H          2.84430       -0.61193       -1.92679
H          3.06498       -1.75993       -0.80025
H          2.30300        1.57149       -2.19269
H          3.77899        2.47829       -1.80077
H          2.17561        3.11320       -1.33553
H          3.97079        3.73544        1.59860
