18
-1770.27
C          1.00000        0.00000        0.00000
C          2.44400        0.00000        0.00000
C          3.63416        0.00000        0.00000
C          5.07816        0.00000        0.00000
C          5.67356        1.42354       -0.01737
C          5.37009        2.19414        1.27187
N          7.13041        1.36020       -0.20296
H          0.60613        1.02091        0.01374
H          0.60595       -0.52220        0.87726
H          0.60589       -0.49849       -0.89092
H          5.43176       -0.54687       -0.88360
H          5.45259       -0.55005        0.87261
H          5.25217        1.98014       -0.86318
H          5.75737        1.66996        2.15283
H          4.29257        2.33250        1.40739
H          5.82356        3.19190        1.24679
H          7.56124        0.90659        0.60198
H          7.50967        2.30615       -0.22616
