15
-1519.97
C          2.48992       -0.58786       -1.39791
C          2.48840        0.02794       -0.00819
C          3.49188        1.16466        0.07401
O          3.04704        2.33667       -0.65951
C          3.03326        3.20348        0.50077
C          3.44927        2.00561        1.34652
O          3.65052        1.80804        2.52454
H          1.78008       -1.41922       -1.44673
H          3.48299       -0.96936       -1.65649
H          2.20594        0.14882       -2.15619
H          2.74554       -0.74484        0.72538
H          1.47845        0.37985        0.23366
H          4.51289        0.88484       -0.20926
H          3.77665        3.99891        0.43157
H          2.03673        3.59250        0.71414
