15
-1524.73
O          1.03339        0.05734       -0.12482
C          2.44330       -0.02831        0.01662
C          2.98353        1.07015        0.91774
O          4.22793        0.59016        1.44815
C          4.11137       -0.79165        1.43910
C          5.05376       -1.56296        1.98888
C          2.88374       -1.28064        0.74409
H          0.74357       -0.71518       -0.64007
H          2.90807        0.02986       -0.97534
H          2.30299        1.29870        1.74726
H          3.15703        1.99804        0.36309
H          4.97782       -2.64403        1.98244
H          5.91923       -1.11682        2.46784
H          3.08865       -2.09479        0.04248
H          2.12946       -1.61728        1.46276
