17
-1701.45
C          1.01004        0.01600       -0.08227
C          2.48135        0.12785        0.09349
O          3.24953       -0.64663       -0.82871
C          3.34541        0.78620       -0.95802
C          4.52885        1.54813       -0.51602
C          4.25531        2.92030        0.03938
C          5.78640        1.08345       -0.60929
H          0.51157        0.88314        0.36242
H          0.63738       -0.88440        0.41641
H          0.72352       -0.03670       -1.13825
H          2.79032        0.13143        1.12965
H          2.85425        1.21506       -1.82626
H          3.73384        3.53303       -0.70354
H          5.17531        3.44534        0.31771
H          3.62729        2.85130        0.93365
H          5.98276        0.09457       -1.01453
H          6.64193        1.66546       -0.28343
