17
-1661.32
C          0.98926        0.06486       -0.03708
C          2.51802       -0.03149        0.01477
C          3.01201       -0.01561        1.45869
C          3.03504       -1.24281       -0.75977
C          3.43400       -0.57538       -2.03453
N          3.45114        0.71618       -2.00932
N          3.12729        1.06885       -0.74164
H          0.61687        0.06665       -1.06829
H          0.63226        0.98154        0.44614
H          0.52859       -0.78557        0.47802
H          4.10619       -0.05686        1.51097
H          2.62271       -0.87677        2.01296
H          2.69009        0.89320        1.97983
H          2.27547       -2.00323       -0.95917
H          3.92437       -1.70923       -0.32460
H          3.70434       -1.16913       -2.91819
H          2.59844        1.94159       -0.70136
