12
-1319.41
O          1.08057       -0.16729       -0.10433
C          2.27635        0.04198       -0.02212
C          2.93562        1.36280       -0.15596
C          4.25450        1.14000       -0.03288
C          4.64587       -0.25203        0.20493
N          4.32325       -1.26657       -0.77948
C          3.31169       -0.99604        0.24480
H          2.40846        2.28195       -0.33338
H          4.99559        1.92818       -0.09717
H          5.38334       -0.47584        0.96514
H          4.05272       -0.85885       -1.67622
H          3.14207       -1.73474        1.01460
