15
-1481.01
C          2.07455       -0.49860        1.31242
C          2.33157        0.01761       -0.09263
C          2.87476        1.41875       -0.05391
N          2.23633        2.54856       -0.03570
N          0.88410        2.46487       -0.06268
C          4.30186        1.62523        0.01050
C          5.48979        1.79278        0.06552
H          1.68950       -1.52225        1.27700
H          1.34231        0.12406        1.83644
H          2.99442       -0.49979        1.90658
H          1.40887       -0.01227       -0.68057
H          3.05616       -0.63303       -0.59559
H          0.50508        3.37334       -0.34582
H          0.52267        2.33535        0.88653
H          6.54190        1.95337        0.11345
