13
-1278.25
N          0.88569        2.36017       -0.12771
N          2.23583        2.45983       -0.12522
C          2.82613        1.32010        0.01607
O          4.16951        1.16795        0.04210
C          4.92891        2.37674       -0.08456
C          6.35782        2.05055        0.00868
C          7.52648        1.78529        0.08830
H          0.48256        3.27389        0.09994
H          0.54714        2.17513       -1.07699
H          2.32510        0.34457        0.13037
H          4.65745        3.07187        0.71797
H          4.71918        2.83969       -1.05664
H          8.56213        1.54518        0.16156
