14
-1491.18
C          1.46969       -0.26019       -0.00065
C          0.43927       -1.35524        0.00356
C         -0.88326       -1.12172        0.01977
C         -1.47622        0.25997        0.03545
C         -0.44595        1.35500        0.01932
C          0.87658        1.12149        0.00311
H          2.11127       -0.37332        0.88044
H          2.10245       -0.37210       -0.88821
H          0.80534       -2.37798       -0.00712
H         -1.57755       -1.95724        0.02209
H         -2.12998        0.37523       -0.83633
H         -2.09662        0.36967        0.93202
H         -0.81208        2.37781        0.02144
H          1.57075        1.95708       -0.00777
