19
-1847.88
C          1.72432       -0.54563       -1.15328
C          2.41113        0.03936        0.07150
C          3.24903        1.27541       -0.26727
C          4.45530        0.98597       -1.15563
C          2.45652        2.54605       -0.64334
C          3.07917        3.15311        0.60731
O          3.70281        1.90021        0.96781
H          1.09141       -1.39015       -0.86215
H          2.45205       -0.91146       -1.88355
H          1.09191        0.19658       -1.65031
H          3.04438       -0.72883        0.53108
H          1.64497        0.29751        0.81302
H          5.10118        1.86475       -1.24929
H          4.14413        0.70047       -2.16629
H          5.06084        0.17259       -0.74209
H          1.36706        2.45847       -0.60028
H          2.74527        3.02993       -1.58031
H          3.82550        3.93224        0.42866
H          2.36877        3.48408        1.36971
