15
-1516.64
C          0.79449       -1.10318        0.60150
C         -0.37730       -1.48571       -0.30749
C         -1.51261       -0.50066       -0.24798
C         -1.39612        0.79955        0.04900
O         -0.24501        1.51900        0.21945
C          0.89178        1.02726       -0.49332
O          1.60627       -0.03883        0.12006
H          1.45551       -1.97001        0.71167
H          0.44799       -0.84831        1.61062
H         -0.76341       -2.45423        0.03154
H         -0.05239       -1.60428       -1.34686
H         -2.51178       -0.91149       -0.38167
H         -2.25593        1.44011        0.20947
H          1.59512        1.86354       -0.56606
H          0.63546        0.76838       -1.52968
