6
-667.28
O          0.95622       -0.01748        0.00000
C          2.17867       -0.01635        0.00000
C          2.91930        1.22105        0.00000
C          3.53532        2.25214        0.00000
H          2.78475       -0.93579        0.00000
H          4.07156        3.17312        0.00000
