14
-1370.11
O          0.51017       -0.28489       -0.63118
N          1.50262       -0.38644        0.37933
C          2.59718       -1.27915        0.02375
C          2.07109       -2.67253       -0.16505
C          2.38092       -3.71540        0.61732
C          1.78512        0.83783        0.95525
O          2.81757        1.13969        1.54159
H         -0.20887       -0.81360       -0.23557
H          3.35904       -1.24377        0.81064
H          3.05645       -0.91577       -0.90234
H          1.41650       -2.83128       -1.01888
H          3.04180       -3.61143        1.47309
H          1.97665       -4.70272        0.41454
H          0.93248        1.53449        0.88584
