13
-1349.1
N          0.95785        0.00001        0.04149
C          2.29573       -0.01064        0.01850
C          3.08699        1.11542        0.00601
O          2.75199        2.40225        0.00738
N          4.39170        0.68357       -0.00987
C          4.42668       -0.68984       -0.01225
C          3.12621       -1.14711        0.00415
H          0.45256        0.87938       -0.01675
H          0.39152       -0.83559       -0.03624
H          3.55530        2.94650        0.00642
H          5.20773        1.27793       -0.01866
H          5.36908       -1.22004       -0.02379
H          2.82032       -2.18407        0.00873
