12
-1253.88
C          0.94456        0.01080       -0.00795
C          2.42355        0.02952       -0.00101
C          3.26799        1.11891        0.00331
N          4.53831        0.62252        0.00891
N          4.58548       -0.71944        0.00848
C          3.30013       -1.07929        0.00241
H          0.53379        1.02544        0.00156
H          0.56424       -0.51730        0.87218
H          0.57260       -0.49750       -0.90316
H          3.08098        2.18331        0.00290
H          5.41360        1.13358        0.01315
H          3.05191       -2.13328        0.00070
