19
-1800.01
C          0.96832        0.02883        0.08387
C          2.49381        0.02317       -0.05382
C          3.02118       -1.33207       -0.59635
N          2.71738       -1.55558       -2.01754
C          3.18607       -0.41594       -2.81775
C          2.67293        0.94289       -2.29591
N          2.96043        1.17137       -0.86589
H          0.61609        0.99011        0.47463
H          0.64834       -0.74854        0.78676
H          0.45788       -0.15794       -0.86647
H          2.90469        0.15940        0.95406
H          2.59305       -2.15453       -0.01211
H          4.10889       -1.37704       -0.45410
H          3.17610       -2.40791       -2.33514
H          4.28309       -0.41016       -2.83198
H          2.85258       -0.55101       -3.85173
H          3.14233        1.74728       -2.87385
H          1.59477        1.03001       -2.47411
H          3.97389        1.22658       -0.76413
