10
-1076.78
O          1.40794       -0.25003       -0.07419
C          0.47797       -1.27278       -0.07722
C         -0.83867       -1.03899       -0.08310
O         -1.36030        0.24129       -0.08656
C         -0.42987        1.26431       -0.08351
C          0.88647        1.03066       -0.07763
H          0.94340       -2.24614       -0.07429
H         -1.61054       -1.79311       -0.08568
H         -0.89575        2.23781       -0.08643
H          1.65905        1.78405       -0.07504
