15
-1421.14
O          2.22602       -0.78590        0.25664
C          1.85793        0.56979        0.03238
C          3.09123        1.39022       -0.11573
C          3.72040        1.58911       -1.46209
N          3.00012        2.68373       -0.80360
N          3.93277        3.48565       -0.24991
C          3.55628        4.71987       -0.24279
H          1.40093       -1.27657        0.41114
H          1.27716        0.91814        0.89259
H          1.22277        0.61104       -0.85905
H          3.73783        1.31604        0.75110
H          3.23398        1.16770       -2.33177
H          4.80041        1.64600       -1.52386
H          4.22222        5.48764        0.18233
H          2.58760        5.07018       -0.64301
