14
-1384.49
C          0.86975        0.01898       -0.03331
C          2.39105       -0.00512       -0.09087
C          3.00805       -0.03409        1.30032
O          2.81560       -1.14139       -0.82490
C          3.42451       -0.58195       -1.88405
N          3.49056        0.69646       -1.94787
O          2.84746        1.16339       -0.78245
H          0.44754        0.04467       -1.04526
H          0.50498        0.90779        0.49162
H          0.47666       -0.87727        0.45809
H          4.10272       -0.04422        1.23647
H          2.70773       -0.93245        1.84950
H          2.72648        0.85195        1.87879
H          3.81818       -1.30193       -2.61263
