18
-1708.68
C          1.90415       -0.67299       -1.19538
O          1.70995        0.40154       -0.28385
C          2.92312        1.10020        0.08732
C          3.78883        0.36259        1.06349
C          3.53156        2.01999       -0.93983
C          2.74355        2.60413        0.19575
N          3.42783        3.41788        1.20310
H          2.47142       -0.34831       -2.07217
H          0.92220       -1.02100       -1.52664
H          2.41608       -1.50302       -0.70167
H          4.70610        0.90794        1.30312
H          4.09098       -0.60714        0.65773
H          3.24187        0.18795        1.99487
H          3.08294        2.06759       -1.92506
H          4.60668        2.14924       -0.94684
H          1.75220        2.97938       -0.05450
H          4.38326        3.10559        1.36375
H          2.94806        3.33994        2.09987
