17
-1723.63
C          1.74419       -1.03757        0.61947
C          3.23471       -0.75715        0.50324
C          3.49752        0.64945       -0.03594
C          4.96931        0.91300       -0.18739
C          5.61141        1.89761        0.45701
C          7.05771        2.11342        0.25230
O          7.65490        3.01333        0.82934
H          1.57758       -2.04645        1.00891
H          1.25536       -0.96543       -0.35712
H          1.26326       -0.32694        1.29847
H          3.68877       -1.50617       -0.15774
H          3.70069       -0.87441        1.48962
H          3.03658        1.39001        0.62894
H          3.02348        0.76437       -1.01787
H          5.50559        0.26098       -0.87422
H          5.11993        2.57648        1.14438
H          7.56257        1.42480       -0.44499
