18
-1747.92
C         -1.53946        0.77727       -0.03178
C         -1.54090       -0.77611        0.05101
C         -0.20121       -1.38386        0.55327
C          0.86735       -0.74226       -0.24471
N          2.07119        0.00239       -0.03382
C          0.86836        0.72459        0.22755
C         -0.20506        1.37954       -0.55284
H         -2.37273        1.11885       -0.65575
H         -1.72147        1.16487        0.97938
H         -1.73860       -1.16316       -0.95729
H         -2.36631       -1.11497        0.68687
H         -0.08197       -1.21483        1.63029
H         -0.20530       -2.46698        0.39060
H          0.73708       -0.98803       -1.29662
H          2.54163       -0.29411        0.82253
H          0.76335        0.98054        1.27963
H         -0.19876        2.46192       -0.38659
H         -0.10360        1.21177       -1.63163
