16
-1504.16
C          2.19595       -0.83276       -1.05766
O          1.88451        0.47535       -0.59763
C          3.05632        1.19657       -0.14536
C          3.54072        2.30718       -1.04584
N          2.87684        2.56203       -2.33629
C          2.82076        2.63394        0.23657
O          3.64636        3.15154        1.29407
H          1.27754       -1.29917       -1.42333
H          2.59577       -1.43629       -0.23739
H          2.91880       -0.78593       -1.87775
H          3.79240        0.66266        0.44837
H          4.61267        2.48947       -1.05658
H          1.91206        2.22410       -2.27843
H          3.30577        1.98933       -3.06338
H          1.80041        2.99807        0.17597
H          3.71485        4.11969        1.22273
