11
-1212.86
C          1.11931       -0.24179        0.03252
C          2.45317       -0.19093        0.03998
N          3.13381        0.99660       -0.00985
C          4.51897        1.08938       -0.00391
O          5.28448        0.13169        0.04592
C          5.05270        2.44577       -0.06254
N          5.41716        3.54981       -0.11077
H          0.61026       -1.20059        0.07306
H          0.49827        0.64623       -0.01305
H          3.05036       -1.10136        0.08642
H          2.60010        1.85859       -0.05357
