14
-1483.97
O          1.54669        0.16861        1.30542
C          2.38851        0.05828        0.43079
C          2.99474       -1.24153       -0.09571
C          3.96929       -0.82342       -1.17296
C          5.19656       -0.00713       -0.86616
C          3.91652        0.67861       -1.24081
N          2.97114        1.10547       -0.26742
H          2.19743       -1.86244       -0.51340
H          3.50516       -1.76692        0.71569
H          3.91615       -1.39937       -2.08444
H          5.53762        0.05708        0.16091
H          6.00026       -0.00870       -1.59407
H          3.83235        1.14787       -2.21415
H          2.71842        2.06447       -0.07494
