11
-1111.83
C          0.93242        0.00272       -0.00607
C          2.42476       -0.03936       -0.00074
N          3.19045       -1.08297        0.00136
O          2.42922       -2.25926       -0.00141
C          3.18734        1.18276        0.00061
C          3.81951        2.20357        0.00154
H          0.56957        1.03415        0.00215
H          0.54844       -0.51418        0.87795
H          0.55600       -0.49753       -0.90284
H          3.11747       -2.95111        0.00035
H          4.38957        3.10393        0.00228
