8
-963.04
C          0.96921        0.01035       -0.00000
C          2.31404        0.00000        0.00000
C          3.01704       -1.21763        0.00000
N          3.59255       -2.21444        0.00000
C          3.03753        1.22613        0.00000
N          3.60757        2.23629       -0.00000
H          0.40604        0.94050       -0.00000
H          0.39144       -0.91083        0.00000
