15
-1550.61
C          1.30309        0.36552       -0.68731
C          2.53820       -0.44356       -0.33721
O          3.66947        0.42511       -0.39391
C          4.89360       -0.11902       -0.11503
C          5.20525       -1.37772        0.22592
C          6.55291       -1.75541        0.47523
C          7.68841       -2.08074        0.68446
H          0.40777       -0.26219       -0.66913
H          1.40291        0.81098       -1.68260
H          1.17028        1.19108        0.01963
H          2.65311       -1.25949       -1.06026
H          2.42792       -0.85468        0.67290
H          5.64710        0.65719       -0.21142
H          4.45092       -2.14905        0.32304
H          8.69735       -2.36801        0.86892
