18
-1794.78
N          2.44423       -0.43066       -1.58853
C          2.44369        0.01992       -0.19578
C          3.29344        1.28390        0.00435
C          3.33568        1.71532        1.48003
C          3.38380        3.24364        1.47360
C          2.80223        3.58396        0.14318
C          2.74679        2.51532       -0.66028
H          1.93248       -1.30888       -1.65892
H          3.39922       -0.62681       -1.88476
H          2.83491       -0.78693        0.43463
H          1.40682        0.20119        0.11078
H          4.31369        1.10842       -0.36103
H          4.19598        1.28573        2.00471
H          2.43523        1.38155        2.01348
H          4.41025        3.61666        1.54769
H          2.79340        3.65941        2.29533
H          2.49610        4.58094       -0.14087
H          2.39353        2.52814       -1.68282
