16
-1572.21
C         -1.67702        0.76790        0.43814
C         -1.01248       -0.38361       -0.27018
C         -0.24060       -1.41301        0.50259
O          1.15022       -1.39429        0.17064
C          1.70269       -0.08128       -0.00419
C          0.77423        1.08000        0.38494
N         -0.48491        0.99288       -0.37240
H         -2.60385        1.14901        0.02356
H         -1.59983        0.85720        1.51486
H         -1.44710       -0.77276       -1.18178
H         -0.33537       -1.26287        1.58438
H         -0.62400       -2.41450        0.28351
H          2.62207       -0.03332        0.58932
H          1.99821        0.00796       -1.05630
H          0.61062        1.07734        1.47019
H          1.26248        2.03032        0.14330
