18
-1768.04
C          1.42855       -0.04208        1.18157
C          2.23714        0.21145       -0.08048
C          3.32679        1.20891        0.16381
N          3.75743        2.09891       -0.91001
C          3.02744        2.68903        0.21220
C          3.79559        3.53158        1.12636
C          3.53679        3.71468        2.42832
H          0.67046       -0.80918        1.00011
H          0.92080        0.87004        1.50874
H          2.07193       -0.37950        1.99976
H          1.56188        0.54683       -0.87792
H          2.68776       -0.72953       -0.41830
H          4.11739        0.81597        0.79365
H          3.14959        2.02483       -1.72457
H          2.01988        3.02898       -0.00301
H          4.65134        4.05262        0.69869
H          2.70046        3.22279        2.91266
H          4.16616        4.36012        3.03210
