19
-1785.04
C          0.97247       -0.01974        0.05504
C          2.48912       -0.04461        0.03159
C          3.20349        1.03702        0.89111
C          4.22445       -0.03634        1.33509
N          5.37663       -0.00814        0.42213
C          3.17212       -1.10979        0.93473
N          3.74339       -2.17127        0.10104
H          0.56545       -0.89171       -0.46810
H          0.59457        0.87853       -0.44473
H          0.58227       -0.02684        1.07873
H          2.84684       -0.03005       -1.00797
H          2.59590        1.41173        1.72514
H          3.58908        1.90152        0.34178
H          4.49889       -0.01773        2.39316
H          5.14854        0.16893       -0.55261
H          5.88069       -0.89570        0.44026
H          2.56719       -1.46613        1.77623
H          4.25812       -1.83182       -0.70800
H          3.04101       -2.81239       -0.26640
