12
-1249.56
C          1.04062       -0.09364        0.11651
C          2.51582        0.17539       -0.09746
C          3.18622        1.17606        0.84921
C          3.99578       -0.05751        1.27962
O          4.88992       -0.30925        2.05170
O          3.33026       -0.90108        0.44807
H          0.71378       -0.94733       -0.48548
H          0.44487        0.77481       -0.18082
H          0.81785       -0.31463        1.16584
H          2.76064        0.34309       -1.15331
H          2.56348        1.59372        1.64270
H          3.78286        1.95356        0.36865
