19
-1767.82
C          1.46142       -0.16473        1.31315
C          2.90310       -0.22896        0.84530
C          3.10881        0.70890       -0.31105
N          3.87343        1.74600       -0.18919
N          3.93754        2.48888       -1.32666
C          2.94448        3.57181       -1.41577
C          5.26701        3.06083       -1.58183
H          1.30058       -0.85066        2.15022
H          0.77369       -0.43965        0.50677
H          1.20085        0.84678        1.64135
H          3.14334       -1.24169        0.50716
H          3.58006        0.03485        1.66420
H          2.57400        0.47102       -1.24897
H          1.93125        3.16769       -1.30969
H          2.98784        4.06563       -2.39291
H          3.09492        4.32170       -0.63108
H          6.02058        2.26549       -1.59708
H          5.55159        3.78460       -0.80929
H          5.30398        3.55311       -2.56049
