15
-1516.52
C          2.88747       -1.03726       -0.42656
O          2.29785        0.20619       -0.07816
C          3.24915        1.27253       -0.05376
C          3.50717        1.82911       -1.46620
C          3.05286        3.23179       -1.33639
C          2.65296        3.43150       -0.08852
O          2.74358        2.35653        0.76494
H          2.10057       -1.79613       -0.44954
H          3.62965       -1.33147        0.32191
H          3.35149       -0.98872       -1.41601
H          4.18213        0.93114        0.41284
H          2.94736        1.29585       -2.24047
H          4.57327        1.79101       -1.71246
H          3.04734        3.96639       -2.12652
H          2.26255        4.33138        0.35769
