11
-1189.07
N          0.97193        0.13074       -0.45146
C          2.18066        0.09538       -0.02251
N          2.85774       -1.04013        0.28809
C          2.34628       -2.30335        0.18706
O          2.99477       -3.30171        0.47886
C          2.82078        1.37267        0.12297
C          3.35788        2.44036        0.24527
H          0.66956        1.09744       -0.61913
H          3.80858       -0.98076        0.62002
H          1.30709       -2.35101       -0.17679
H          3.83172        3.38896        0.35273
