13
-1372.73
C          1.14580       -0.17668       -0.53603
O          2.44364       -0.02039        0.02003
C          2.89401        1.33855        0.00000
C          2.39408        2.04593        1.15535
C          1.98204        2.62896        2.10760
C          4.33801        1.33855        0.00000
C          5.52817        1.33855        0.00000
H          0.87088       -1.23297       -0.47110
H          1.14245        0.11645       -1.59041
H          0.40677        0.40753        0.02031
H          2.54744        1.82285       -0.92176
H          1.61939        3.14493        2.96653
H          6.59348        1.33048        0.00641
