11
-1177.01
C          2.69292       -1.10308        0.40680
C          2.20356        0.11800        0.14788
C          2.97141        1.30936        0.09274
C          2.53325        2.57474       -0.16467
O          3.61798        3.38906       -0.11356
N          4.73544        2.60174        0.18060
N          4.31836        1.34367        0.30128
H          2.04176       -1.97063        0.43235
H          3.75015       -1.26581        0.59862
H          1.13483        0.20513       -0.03455
H          1.58779        3.04336       -0.38423
