10
-1092.62
C          1.00000        0.00000        0.00000
C          2.44400        0.00000        0.00000
C          3.63416        0.00000        0.00000
C          5.07717        0.01616        0.00000
O          5.63426       -1.21453        0.00000
O          5.70762        1.05897       -0.00000
H          0.60592        1.02085        0.01168
H          0.60595       -0.52056        0.87824
H          0.60595       -0.50032       -0.88993
H          4.95011       -1.91024        0.00000
