13
-1421.32
C          1.49219       -0.92062       -0.40971
C          2.77767       -0.55276       -0.34778
C          3.16171        0.84655        0.01427
O          2.30306        1.70220        0.22850
C          4.64065        1.18144        0.03228
C          5.40719        0.33393        0.95738
C          6.04073       -0.35194        1.71444
H          1.21470       -1.93552       -0.67338
H          0.68876       -0.21962       -0.19741
H          3.57472       -1.25532       -0.55982
H          4.74807        2.23242        0.32440
H          5.02406        1.09100       -0.99008
H          6.60307       -0.95328        2.39112
