15
-1543.11
N          0.87723        0.04170       -0.00179
C          2.17045        0.02217        0.02612
C          2.86350       -1.33727        0.04847
C          4.35457       -1.22928        0.02645
C          4.99788       -0.05430       -0.01322
C          4.32880        1.28226       -0.04047
N          2.89115        1.18126        0.04500
H          0.55040        1.00842       -0.00450
H          2.52129       -1.91225       -0.81921
H          2.54545       -1.86709        0.95315
H          4.91840       -2.15741        0.04286
H          6.08486       -0.04890       -0.02993
H          4.69329        1.88502        0.79781
H          4.59960        1.80175       -0.96563
H          2.39211        2.05683       -0.01785
