21
-2049.24
C          3.22446       -1.11858       -0.70986
C          2.65221       -0.14485        0.31233
C          3.30745        1.25078        0.26239
C          2.58756        2.20514        1.22215
C          4.80783        1.23400        0.53162
C          5.29035        0.70662        1.85599
C          5.68139        1.67998       -0.38873
H          2.67411       -2.06408       -0.67519
H          4.27698       -1.33977       -0.51083
H          3.14033       -0.71570       -1.72388
H          2.74180       -0.57965        1.31526
H          1.57687       -0.03999        0.11816
H          3.13853        1.64575       -0.74940
H          2.60803        1.83811        2.25373
H          1.53676        2.31821        0.93340
H          3.04465        3.20046        1.20483
H          4.99553       -0.33831        1.99012
H          4.88113        1.29562        2.68238
H          6.38239        0.74782        1.93848
H          5.35107        2.06388       -1.34928
H          6.75204        1.67327       -0.20832
