17
-1649.31
C          1.04970       -0.00082       -0.02457
C          2.54252        0.05307        0.01041
O          3.10233        0.01442        1.32945
C          3.35482       -0.62997       -1.05688
C          3.28345        0.87761       -1.01185
C          4.47566        1.68819       -0.63558
O          5.25692        1.91450       -1.80173
H          0.66268        0.02720       -1.04841
H          0.62761        0.84903        0.52067
H          0.69272       -0.92197        0.44630
H          2.87101       -0.81313        1.78686
H          2.83365       -1.13345       -1.86309
H          4.27857       -1.11387       -0.76066
H          2.69656        1.37933       -1.77419
H          5.10818        1.19891        0.11139
H          4.16396        2.65908       -0.24034
H          5.53268        1.03886       -2.12055
