13
-1389.22
O          1.88388       -0.74505       -0.66403
C          2.03592        0.20564        0.09830
C          3.09605        1.27470       -0.06418
C          3.53828        1.47886       -1.51450
C          3.47373        2.95403       -1.63084
C          2.91651        3.44138       -0.52985
O          2.55518        2.52151        0.42785
H          1.44469        0.27168        1.02766
H          3.94242        1.00376        0.57925
H          2.87769        1.00483       -2.24671
H          4.55434        1.10305       -1.67092
H          3.79194        3.52943       -2.48678
H          2.68088        4.46650       -0.29309
