21
-1928.05
C          1.41521       -0.42305       -0.15917
N          2.82620       -0.07442       -0.05859
C          3.00299        1.38259       -0.05571
C          4.49499        1.71933        0.04464
C          4.75774        3.23173        0.12318
C          6.24350        3.50803        0.34930
N          4.31659        3.90647       -1.10025
H          1.30834       -1.51239       -0.16100
H          0.97117       -0.04021       -1.08425
H          0.84992       -0.03818        0.69598
H          3.32383       -0.46817       -0.85653
H          2.47474        1.81891        0.80069
H          2.58053        1.81016       -0.97244
H          5.03077        1.29003       -0.81260
H          4.90834        1.24171        0.94301
H          4.19472        3.64881        0.96620
H          6.85668        3.10905       -0.46746
H          6.58515        3.04616        1.28220
H          6.43789        4.58425        0.42327
H          4.86149        3.56915       -1.89407
H          4.51797        4.90416       -1.03012
