14
-1381.59
C          0.65821        0.28322        0.11064
C          2.10235        0.11436        0.45421
C          3.10434        0.71442       -0.20358
N          4.43388        0.56922        0.09273
O          4.75691       -0.28894        1.16958
C          5.49707        1.15726       -0.54891
O          6.67201        0.97849       -0.23973
H          0.21907       -0.68797       -0.13472
H          0.51206        0.94980       -0.74446
H          0.11833        0.69975        0.96541
H          2.31892       -0.54354        1.29394
H          2.88717        1.37234       -1.04137
H          5.73567       -0.24351        1.17092
H          5.19750        1.81442       -1.38095
