18
-1732.85
N          1.92294       -0.28636       -1.34740
C          2.41334        0.13726       -0.03532
C          3.15773        1.47715       -0.07440
C          2.30337        2.65451       -0.51770
C          3.01614        3.80970        0.13970
C          3.42716        3.20943        1.46674
O          3.64416        1.80826        1.24354
H          1.45399       -1.18662       -1.24847
H          2.71677       -0.45148       -1.96593
H          3.07656       -0.63498        0.37244
H          1.56912        0.20518        0.66098
H          4.04075        1.39133       -0.72102
H          1.28619        2.57514       -0.11675
H          2.23876        2.75014       -1.60480
H          3.90649        4.07720       -0.44273
H          2.39734        4.70462        0.24905
H          4.33654        3.66315        1.86897
H          2.62918        3.30766        2.20943
