16
-1501.58
C          1.22997       -0.82785        0.39570
C          2.58666       -0.22315        0.06089
O          3.17717       -0.96046       -1.01193
C          2.47008        1.25459       -0.32774
C          3.82928        1.88568       -0.62053
O          4.41563        1.31697       -1.78387
H          0.76543       -0.31453        1.24252
H          1.33676       -1.88875        0.64475
H          0.55168       -0.77237       -0.46236
H          3.24983       -0.32667        0.92754
H          2.52163       -1.00629       -1.73292
H          1.98216        1.81053        0.48032
H          1.84807        1.33981       -1.22709
H          4.51908        1.75539        0.21957
H          3.71214        2.95878       -0.79951
H          4.41447        0.34634       -1.64595
