15
-1590.27
C          1.05315        0.06577       -0.02945
C          2.53486       -0.02929       -0.07527
C          3.28310       -1.12801        0.02958
C          4.65489       -0.73432       -0.06542
C          5.71873       -1.53557        0.03688
C          4.63166        0.74987       -0.28555
O          3.24199        1.16068       -0.24733
H          0.58682       -0.92426        0.01812
H          0.67582        0.57367       -0.92164
H          0.73659        0.63336        0.85199
H          2.92581       -2.13607        0.17058
H          6.72619       -1.14053       -0.04141
H          5.61201       -2.60286        0.20515
H          5.03814        1.01853       -1.26628
H          5.17065        1.28851        0.50109
