12
-1298.51
O          0.99044        0.01635        0.02065
C          2.42000        0.00000        0.00000
C          2.86738       -0.77919       -1.23617
C          4.29511       -1.10822       -1.17091
N          5.42156       -1.37801       -1.11299
C          2.90202        1.36117        0.00000
C          3.29930        2.48307        0.00000
H          0.72657        0.60403        0.75089
H          2.74429       -0.51944        0.90959
H          2.64810       -0.21387       -2.15071
H          2.28607       -1.70662       -1.31300
H          3.65958        3.48671       -0.00278
