14
-1389.49
C          0.97704       -0.02472       -0.09376
C          2.50034        0.00390       -0.04796
C          3.12437       -0.88297       -1.11912
C          3.02649        1.42357       -0.13422
O          2.73377        2.06511       -1.28607
O          3.66578        1.95853        0.75973
H          0.55259        0.64670        0.66043
H          0.60382       -1.03522        0.10277
H          0.59255        0.29045       -1.06942
H          2.81346       -0.38256        0.93090
H          2.80339       -0.59397       -2.12539
H          2.84291       -1.93009       -0.96567
H          4.21743       -0.81743       -1.09012
H          2.21916        1.53796       -1.92390
