16
-1654.63
C          1.04399       -0.03115       -0.01937
C          2.53478       -0.03928       -0.05154
C          3.26188       -0.63725       -1.22736
C          3.28050        0.85925       -1.01278
C          4.52578        1.56024       -0.55535
C          5.26841        1.87156       -1.78227
N          5.86398        2.12846       -2.74605
H          0.68713        0.76641        0.63960
H          0.67083       -0.98504        0.36609
H          0.61093        0.12799       -1.01239
H          2.95265       -0.20996        0.93483
H          2.68179       -1.01942       -2.06104
H          4.16335       -1.20733       -1.02949
H          2.68239        1.47417       -1.68046
H          5.12535        0.93252        0.11218
H          4.26202        2.47662       -0.01804
