15
-1541.82
C          0.80147       -0.20399        0.12972
C          2.27483        0.11725       -0.11535
C          2.74244       -0.51638       -1.40539
C          3.74094       -1.40618       -1.49382
C          2.50791        1.62909       -0.15683
O          3.80042        1.96694       -0.39674
O          1.65105        2.47783        0.03754
H          0.45062        0.26251        1.05669
H          0.64388       -1.28417        0.21786
H          0.16701        0.16667       -0.68412
H          2.84932       -0.26559        0.73841
H          2.22253       -0.21678       -2.31545
H          4.28693       -1.75402       -0.62228
H          4.02268       -1.82597       -2.45660
H          4.37193        1.19029       -0.55677
