17
-1620.31
C          0.97228       -0.00787        0.05126
C          2.48736        0.00666        0.01053
C          3.19517        1.05245        0.91182
C          4.21540       -0.03119        1.31544
N          5.36030        0.01912        0.40389
C          3.21399       -1.09618        0.82595
H          0.58175       -0.86849       -0.50013
H          0.56759        0.89853       -0.40878
H          0.59644       -0.06386        1.07740
H          2.84157        0.05164       -1.02976
H          2.58369        1.39254        1.75693
H          3.58059        1.93802        0.39690
H          4.48340       -0.06679        2.37450
H          5.12532        0.07297       -0.58641
H          5.99002       -0.77681        0.49866
H          3.61430       -1.93073        0.24170
H          2.60933       -1.51342        1.64069
