13
-1335.92
N          0.93894       -0.17320       -0.06777
N          2.34957       -0.10371       -0.05113
C          3.09207        1.03436        0.03941
C          4.41995        0.65855        0.07999
C          4.46260       -0.75872        0.00791
C          3.16471       -1.20540       -0.08412
O          2.67109       -2.43714       -0.18577
H          0.54242        0.62860       -0.55474
H          0.57622       -0.12574        0.88316
H          2.63222        2.01158        0.07166
H          5.26673        1.33025        0.15444
H          5.34418       -1.38871        0.01757
H          1.70407       -2.32524       -0.28621
