18
-1779.9
C          0.98656        0.11633        0.22714
C          2.48078       -0.06200       -0.00426
C          2.84406       -1.46035       -0.49988
C          2.95162       -1.32365       -2.01548
N          3.42385        0.04964       -2.27340
C          2.35510        1.03050       -2.41436
C          3.02640        0.83478       -1.08071
H          0.75323        1.15929        0.46682
H          0.65174       -0.50789        1.06290
H          0.39492       -0.16508       -0.65021
H          2.99993        0.13586        0.94112
H          2.12812       -2.23046       -0.19670
H          3.82604       -1.74018       -0.09647
H          3.66810       -2.04867       -2.41527
H          1.98689       -1.51980       -2.49886
H          2.60988        1.92051       -2.97927
H          1.34730        0.67537       -2.58439
H          3.74701        1.56467       -0.73598
