22
-2063.98
C          1.09061        0.04522       -0.64020
C          2.59437        0.21376       -0.49186
C          2.96719        1.66307       -0.17612
C          4.48425        1.82598       -0.02538
C          4.90362        3.26293        0.32618
C          6.40920        3.33730        0.57849
N          4.54074        4.18926       -0.74708
H          0.84744       -0.99542       -0.87547
H          0.70288        0.67542       -1.44676
H          0.57299        0.31445        0.28578
H          3.08472       -0.10189       -1.42033
H          2.95375       -0.44676        0.30597
H          2.47203        1.97570        0.75124
H          2.59498        2.31216       -0.97716
H          4.97975        1.50638       -0.95166
H          4.83445        1.14964        0.76523
H          4.38223        3.57377        1.23900
H          6.98147        3.03614       -0.30638
H          6.69545        2.67737        1.40474
H          6.71351        4.35501        0.84818
H          5.02075        3.92607       -1.60711
H          4.86760        5.12696       -0.51721
