14
-1322.48
C          0.99962       -0.03526        0.04521
C          2.51022        0.05465        0.01391
C          3.17063        1.09827        0.94195
C          4.19547       -0.01348        1.22350
N          3.15590       -0.99572        0.84336
H          0.64946       -0.90320       -0.52403
H          0.55478        0.85815       -0.40540
H          0.61246       -0.12152        1.06696
H          2.90075        0.08914       -1.01240
H          2.57409        1.38443        1.81600
H          3.55831        1.99732        0.45789
H          5.06242       -0.00598        0.55044
H          4.54439       -0.08740        2.25620
H          3.49832       -1.80148        0.32359
