17
-1647.92
C          3.26333       -0.38223        0.41663
O          2.52754        0.83543        0.43619
C          3.19502        2.02664        0.21719
C          2.24297        3.18921        0.27860
C          4.51984        2.13461       -0.01513
C          5.31647        3.37284       -0.26756
O          6.31101        3.46953        0.74135
H          2.56258       -1.20017        0.60640
H          4.01842       -0.39561        1.20868
H          3.71743       -0.54940       -0.56494
H          1.73516        3.20170        1.24893
H          1.48234        3.08675       -0.50240
H          2.71817        4.16236        0.14934
H          5.13725        1.24086       -0.04598
H          4.73638        4.29626       -0.26615
H          5.82058        3.29676       -1.23569
H          5.84375        3.47244        1.59458
