16
-1562.32
C          1.44278        3.13216       -0.38569
C          2.69523        2.68382       -0.47633
O          3.11568        1.59564        0.23936
C          4.50436        1.28300       -0.00297
C          5.57124        2.13571        0.72226
N          6.34494        0.90046        0.99156
C          5.08837        0.12757        0.84110
H          1.11350        3.99312       -0.95634
H          0.72365        2.64284        0.26312
H          3.43240        3.15137       -1.11523
H          4.71087        1.13851       -1.07410
H          5.21778        2.63616        1.63157
H          6.09138        2.86910        0.09906
H          7.03549        0.68972        0.27000
H          5.20265       -0.82660        0.31829
H          4.57032       -0.05318        1.79038
