20
-1862.52
C          1.29508       -0.46732        0.83717
C          2.33808       -0.62934       -0.27473
C          2.12993       -1.94834       -1.03096
O          0.91739       -1.94188       -1.77517
C          2.29523        0.60876       -1.19594
C          3.31084        0.59964       -2.34121
N          4.68065        0.51167       -1.84608
H          1.51040        0.42148        1.44017
H          1.30355       -1.33305        1.50769
H          0.28337       -0.35903        0.43284
H          3.32037       -0.67789        0.21179
H          2.10617       -2.79784       -0.33923
H          2.95072       -2.13158       -1.73073
H          0.18402       -1.98576       -1.13730
H          2.45836        1.50865       -0.58774
H          1.29161        0.71368       -1.62785
H          3.20210        1.52240       -2.92228
H          3.11583       -0.23096       -3.02657
H          4.88597        1.32635       -1.26877
H          5.32393        0.55502       -2.63594
