20
-1913.79
C          0.92833        1.92833        0.63023
C          2.42795        2.13892        0.77803
N          3.12764        1.45705       -0.30846
C          4.58506        1.52764       -0.18587
C          5.19941        0.60225       -1.23936
C          5.09944        2.92971       -0.38782
C          5.80909        3.61085        0.52226
H          0.39494        2.44440        1.43503
H          0.67103        0.86514        0.68270
H          0.56302        2.32427       -0.32331
H          2.74624        1.74080        1.74827
H          2.63271        3.21512        0.76652
H          2.83496        1.83381       -1.20779
H          4.88396        1.14498        0.79855
H          4.92960        0.90614       -2.25811
H          4.86219       -0.43096       -1.09709
H          6.29343        0.60405       -1.17041
H          4.87776        3.40669       -1.34002
H          6.05742        3.18189        1.48838
H          6.15292        4.61999        0.31764
