17
-1677.9
C          1.13226       -0.00298        0.24862
N          2.44461        0.08320       -0.37433
C          3.09384        1.18360       -0.24790
C          2.64825        2.44186        0.45886
C          3.47182        3.49137       -0.29276
C          4.74483        2.76609       -0.73453
N          4.33194        1.38538       -0.78362
H          0.79703       -1.04466        0.22996
H          0.39658        0.58967       -0.30420
H          1.14990        0.31197        1.29760
H          2.93768        2.38086        1.51300
H          1.57742        2.63057        0.37096
H          2.91495        3.82149       -1.17905
H          3.68249        4.37606        0.31476
H          5.09509        3.12216       -1.70729
H          5.54416        2.88975        0.00251
H          4.63301        0.76593       -1.52577
