15
-1458.12
C          2.08917       -0.31815        1.49147
C          2.48626        0.04738        0.06815
C          3.07625        1.43368       -0.03607
C          2.13177        2.58956        0.14039
C          4.37854        1.62630       -0.30758
H          1.71566       -1.34682        1.52487
H          1.29625        0.33564        1.86806
H          2.94450       -0.24687        2.17183
H          1.61120       -0.02463       -0.58891
H          3.20223       -0.70038       -0.29571
H          1.30120        2.51296       -0.56879
H          2.62491        3.55214       -0.03106
H          1.72388        2.60361        1.15578
H          5.05929        0.79218       -0.44685
H          4.79985        2.62293       -0.39509
