15
-1493.16
C          4.93920       -0.79971       -0.24125
O          3.52445       -0.69176       -0.35288
C          2.97070        0.52220       -0.05425
C          3.56895        1.65307        0.33577
O          2.84579        2.79281        0.59292
C          3.50207        3.93184        0.98235
C          2.84844        5.06649        1.23612
H          5.22266       -1.81928       -0.51827
H          5.26403       -0.62592        0.78972
H          5.44005       -0.11067       -0.92916
H          1.89472        0.46477       -0.18018
H          4.63472        1.75326        0.47296
H          4.57634        3.85152        1.06947
H          1.76883        5.12041        1.14064
H          3.37945        5.96069        1.54299
