14
-1352.2
O          0.71371        1.67829       -0.44584
N          2.03172        1.53040       -0.88982
C          2.80169        1.37999        0.13776
C          4.31650        1.20349       -0.03556
C          5.07968        2.26920       -0.82799
O          6.06005        2.40927        0.22927
C          5.22417        1.63433        1.11981
H          0.22116        1.79362       -1.28057
H          2.40592        1.38164        1.16818
H          4.55287        0.18780       -0.38046
H          4.55321        3.21261       -1.00357
H          5.53335        1.92044       -1.75993
H          5.78156        0.82583        1.60108
H          4.76578        2.27113        1.88306
