18
-1779.46
C          1.01487       -0.41808       -0.35450
C          2.45828       -0.02549       -0.41989
C          3.02563        1.11230        0.03905
C          2.25037        2.17587        0.79032
N          1.81359        3.24548       -0.10272
C          4.46301        1.29447       -0.17946
C          5.21766        2.33784        0.18998
H          0.89785       -1.29016        0.29526
H          0.66813       -0.69179       -1.35617
H          0.35852        0.37417        0.00877
H          3.07899       -0.75916       -0.93294
H          2.85197        2.59199        1.60607
H          1.37141        1.75223        1.28652
H          2.62888        3.61547       -0.58865
H          1.43664        4.00925        0.45439
H          4.97143        0.48783       -0.70860
H          4.82850        3.20086        0.71630
H          6.27941        2.34620       -0.03838
