13
-1411.36
O          0.89014        0.11667        0.00913
C          2.11963        0.06140        0.00951
C          2.82718       -1.27734        0.05152
C          4.31361       -1.22801        0.02318
C          4.97356       -0.06981       -0.02088
C          4.28618        1.24866       -0.04427
O          2.84961        1.19423       -0.02131
H          2.48228       -1.85806       -0.81105
H          2.51265       -1.78682        0.96897
H          4.85579       -2.16942        0.03970
H          6.06026       -0.06533       -0.04059
H          4.60182        1.84261        0.81961
H          4.57455        1.79705       -0.94684
