18
-1762.34
N          0.94028       -0.05323        0.03293
C          2.39721       -0.08968        0.06847
C          2.96347        1.32319       -0.05890
C          4.49282        1.31131       -0.01858
C          5.06331        2.72414       -0.13819
C          6.53274        2.70481       -0.10681
C          7.73400        2.69245       -0.08093
H          0.57733       -1.00428        0.08644
H          0.62695        0.32061       -0.86208
H          2.76512       -0.72203       -0.74697
H          2.72003       -0.54098        1.01277
H          2.58130        1.95080        0.75621
H          2.62701        1.77619       -1.00011
H          4.87716        0.68522       -0.83418
H          4.83313        0.85216        0.91856
H          4.68807        3.34778        0.68149
H          4.72406        3.18458       -1.07338
H          8.79884        2.68266       -0.05717
