15
-1426.72
O          0.17684       -0.75088       -0.94003
N          0.90633       -0.82824        0.25758
C          2.16501       -1.55553        0.13338
C          1.87476       -2.99106       -0.20483
C          2.15850       -4.03864        0.58211
C          0.82347        0.32077        1.00282
N         -0.00553        1.29277        0.83172
H         -0.62678       -1.26269       -0.72480
H          2.73098       -1.49609        1.07093
H          2.78384       -1.10734       -0.65204
H          1.41811       -3.17143       -1.17459
H          2.62187       -3.91666        1.55668
H          1.92602       -5.05029        0.26266
H          1.55102        0.36320        1.83140
H         -0.55639        1.05491       -0.00166
