12
-1358.99
C          0.99059       -0.20530        0.00478
C          2.47819       -0.03719        0.00473
C          3.13902        1.13799        0.00000
C          2.43602        2.35562        0.00000
C          1.84094        3.38633        0.00000
C          4.54502        1.13799        0.00000
N          5.69603        1.13799        0.00000
H          0.73930       -1.27083       -0.03217
H          0.53776        0.26901       -0.87166
H          0.54803        0.20652        0.91722
H          3.04822       -0.96609        0.00882
H          1.31121        4.31096       -0.00000
