16
-1639.37
C          1.14357        0.13636        0.20819
C          2.44376       -0.08598       -0.02792
C          3.05263       -1.45834       -0.22801
N          4.33113       -1.25229       -0.94834
C          4.66360        0.18158       -0.81849
C          3.95222        1.21681       -1.63888
C          3.47677        0.93026       -0.24366
H          0.75948        1.14766        0.29062
H          0.43922       -0.68196        0.30722
H          2.40215       -2.12398       -0.80212
H          3.25813       -1.90737        0.75027
H          5.04481       -1.83821       -0.51988
H          5.65647        0.42286       -0.45167
H          4.45953        2.15819       -1.81431
H          3.34761        0.88519       -2.47580
H          3.66501        1.64254        0.54918
