11
-1069.99
C          2.69448       -0.67095       -1.19132
C          3.02312       -0.07755       -0.03588
S          3.26552        1.63916        0.04985
O          2.74217        2.29264       -1.13849
O          2.90451        2.10982        1.37350
C          5.02997        1.83359       -0.06287
O          5.79741        0.97990        0.37438
H          2.54715       -1.74580       -1.23582
H          2.55725       -0.11347       -2.11447
H          3.15579       -0.63505        0.88142
H          5.37939        2.75525       -0.55222
