19
-1898.16
C          0.90363       -0.12420        0.22459
C          2.38266        0.14903        0.03280
C          3.02117        1.17324        1.00683
C          4.29246        0.30182        0.97245
C          3.37539       -0.90165        0.62440
C          3.92303       -1.87801       -0.34747
C          4.93848       -2.67704        0.00192
H          0.58506       -0.96589       -0.39762
H          0.31147        0.75007       -0.06306
H          0.66890       -0.36459        1.26596
H          2.59347        0.40447       -1.01701
H          2.54825        1.21876        1.99475
H          3.13389        2.18941        0.62025
H          4.99788        0.59133        0.18322
H          4.83422        0.22712        1.91922
H          2.97952       -1.40139        1.52162
H          3.48403       -1.94813       -1.33825
H          5.39215       -2.63189        0.98772
H          5.34189       -3.39872       -0.70139
