13
-1312.18
C          1.00000        0.00000        0.00000
C          2.44400        0.00000        0.00000
C          3.63416        0.00000        0.00000
C          5.08248       -0.00667        0.00062
O          5.68116       -1.07215        0.09471
N          5.74898        1.20268       -0.10613
N          5.11888        2.45988       -0.21716
H          0.60614        1.02094        0.01130
H          0.60591       -0.52016        0.87845
H          0.60593       -0.50056       -0.88977
H          6.76539        1.14940       -0.10139
H          4.50314        2.59002        0.59096
H          4.50339        2.44648       -1.03578
