15
-1551.07
C          1.06182       -0.13508       -0.21363
O          2.48054       -0.06235       -0.19863
C          3.06150        1.16827        0.00000
C          2.41458        2.32976        0.18693
C          4.46750        1.16827        0.00000
C          5.65766        1.16827        0.00000
C          7.10166        1.16827        0.00000
H          0.77970       -1.17867       -0.38229
H          0.64637        0.46162       -1.03250
H          0.64221        0.17472        0.74934
H          1.33587        2.41119        0.19987
H          2.96608        3.25397        0.33588
H          7.49566        2.18914       -0.01161
H          7.49570        0.64779       -0.87829
H          7.49570        0.66790        0.88990
