16
-1651.87
C          1.07370       -0.14730       -0.36004
C          2.40252        0.00457       -0.32263
C          3.09065        1.26070       -0.19873
C          4.41701        1.40572       -0.14060
C          4.78601        2.83562        0.00448
N          3.53133        3.59431       -0.14269
C          2.43575        2.60039       -0.10037
H          0.63850       -1.13742       -0.45354
H          0.38551        0.68815       -0.29673
H          3.02466       -0.88685       -0.38734
H          5.14294        0.60668       -0.17004
H          5.22564        3.02274        0.98923
H          5.50566        3.13738       -0.76321
H          3.52942        4.01070       -1.07267
H          1.74508        2.77915       -0.93138
H          1.88776        2.70099        0.84257
