15
-1476.65
C          2.01921       -0.51413        0.49894
N          3.37060       -0.07409        0.29442
C          4.26632       -0.79528       -0.45299
O          4.05328       -1.89235       -0.94912
C          5.59719       -0.14470       -0.61733
C          5.86435        0.73820       -1.80322
N          5.63758        1.32773       -0.48618
H          1.59879        0.03146        1.34696
H          1.99919       -1.58854        0.69924
H          1.43795       -0.30259       -0.40350
H          3.63364        0.89018        0.47765
H          6.43015       -0.69157       -0.19141
H          5.07443        0.87219       -2.53269
H          6.87349        0.78201       -2.19461
H          6.52386        1.61464       -0.06433
