16
-1470.79
C          1.16124       -0.27645       -0.08987
C          2.67731       -0.16165       -0.05525
C          3.12735        1.29719        0.01797
C          4.65064        1.40280        0.05382
N          5.06033        2.80058        0.12969
H          0.86138       -1.32788       -0.14398
H          0.74875        0.23976       -0.96272
H          0.71459        0.15850        0.80987
H          3.09376       -0.63624       -0.95232
H          3.05949       -0.71492        0.81108
H          2.70225        1.76604        0.91380
H          2.73682        1.84322       -0.84871
H          5.08465        0.94610       -0.84339
H          5.04645        0.86783        0.92460
H          4.72300        3.30177       -0.69111
H          6.07763        2.85705        0.10094
