12
-1268.25
C          1.17595       -0.32165       -0.22767
C          2.43285       -0.43207        0.21152
N          3.43720        0.48271        0.03364
C          4.74411        0.44763        0.44839
N          5.37551       -0.45436        1.11538
C          5.59223        1.58366        0.10658
N          6.20214        2.52394       -0.20428
H          0.45207       -1.10775       -0.03220
H          0.83171        0.54182       -0.78724
H          2.71897       -1.32201        0.76748
H          3.15845        1.31117       -0.48761
H          4.74372       -1.22680        1.33109
