17
-1608.8
C          0.94394       -0.02131        0.05919
C          2.45694       -0.00105       -0.01212
C          3.18571        1.02999        0.87646
N          4.14538       -0.01679        1.29062
C          5.34515        0.02282        0.45378
C          3.21314       -1.06291        0.81629
H          0.54591       -0.88911       -0.47616
H          0.52596        0.87903       -0.40206
H          0.58705       -0.06854        1.09313
H          2.79570        0.03406       -1.05727
H          2.58690        1.40621        1.71526
H          3.60171        1.89567        0.34940
H          5.97394       -0.84882        0.66626
H          5.93710        0.91297        0.69390
H          5.13900        0.03531       -0.62305
H          3.65137       -1.88565        0.24067
H          2.62502       -1.50226        1.63165
