18
-1725.
C          1.96059        0.64860       -2.84305
C          3.24925        0.65907       -2.08345
C          3.40342        1.25107       -0.88635
C          4.64091        1.31643       -0.02881
N          5.78224        0.55308       -0.55843
C          5.09166        2.77685        0.20117
O          6.29688        2.79729        0.96985
H          2.09201        1.15126       -3.80596
H          1.15454        1.15320       -2.30089
H          1.64917       -0.38318       -3.03258
H          4.07714        0.14647       -2.56520
H          2.53762        1.74784       -0.44670
H          4.40379        0.87723        0.94798
H          6.00700        0.90329       -1.48945
H          5.48954       -0.41655       -0.67806
H          4.33074        3.34519        0.74537
H          5.29080        3.28751       -0.74767
H          6.77725        1.99058        0.68774
