15
-1521.56
C          1.01785        0.15202        0.05915
C          2.48800        0.02141       -0.11392
C          3.23693       -1.06509       -0.22690
C          2.83269       -2.49445       -0.18636
O          4.58232       -0.77638       -0.38634
C          4.55679        0.66504       -0.36073
O          3.22700        1.19243       -0.18733
H          0.51715       -0.82110        0.06116
H          0.59275        0.74548       -0.75667
H          0.78966        0.65267        1.00483
H          3.70744       -3.14277       -0.07237
H          2.32275       -2.77428       -1.11251
H          2.16546       -2.69003        0.65837
H          4.96626        1.04196       -1.30512
H          5.18664        1.01518        0.46493
