14
-1326.7
C          2.29343       -0.39769       -0.26767
N          3.38574        0.18323        0.10080
N          3.68575        1.24938       -0.67541
C          5.14588        1.40876       -0.60956
C          6.01770        0.64617       -1.56981
C          5.84991        2.12931       -1.72667
H          1.93621       -1.28147        0.28298
H          1.68102       -0.06405       -1.12444
H          3.24961        2.09425       -0.29463
H          5.54343        1.56454        0.39177
H          5.53233       -0.00429       -2.28768
H          6.96224        0.27063       -1.19617
H          6.68901        2.76417       -1.46910
H          5.26309        2.48268       -2.56614
