13
-1400.47
N          1.07335       -0.30549        0.36423
C          2.41879       -0.01350        0.30084
C          3.05352        1.13799        0.00000
C          2.32406        2.36928       -0.28973
C          2.85279        3.52634       -0.71555
C          4.45952        1.13799        0.00000
N          5.61053        1.13799        0.00000
H          0.85352       -1.28661        0.19908
H          0.47127        0.31815       -0.16725
H          3.01200       -0.89728        0.54664
H          1.24842        2.34607       -0.12994
H          3.91375        3.66246       -0.90096
H          2.21430        4.38795       -0.89172
