7
-708.37
C          1.00000        0.00000        0.00000
C          2.44400        0.00000        0.00000
C          3.63416        0.00000        0.00000
H          0.59838        1.01818        0.03530
H          0.61955       -0.50800        0.89310
H          0.56304       -0.49707       -0.87059
H          4.70054       -0.00000       -0.00000
