14
-1372.9
C          0.82080       -0.71963        0.14052
C          2.09554        0.00145       -0.22675
N          3.17742       -0.68914       -0.42762
N          2.17259        1.36048       -0.34704
C          1.25345        2.35821       -0.18518
C          1.47357        3.66615       -0.35237
H         -0.05101       -0.06645        0.14180
H          0.93722       -1.15989        1.13518
H          0.64483       -1.52513       -0.57906
H          2.98769       -1.68929       -0.30035
H          3.10627        1.66750       -0.60449
H          0.26145        2.02785        0.10849
H          2.44491        4.05039       -0.64403
H          0.67462        4.38450       -0.20004
