13
-1254.21
C          1.01647       -0.02904       -0.07619
C          2.48802        0.14093        0.04901
O          3.24461       -0.48510       -0.99724
C          3.27084        0.94767       -0.95434
C          4.59581        1.52775       -0.61096
H          0.49981        0.66305        0.59544
H          0.72909       -1.04877        0.19786
H          0.66547        0.16207       -1.09632
H          2.84820        0.03980        1.06343
H          2.75351        1.48905       -1.73449
H          5.10755        0.95317        0.16799
H          4.47425        2.55453       -0.25230
H          5.23888        1.54955       -1.49618
