17
-1636.51
N          0.95364       -0.00305       -0.01818
C          2.41671        0.00598        0.01701
C          2.97739        1.43282        0.00000
C          4.42139        1.43282        0.00000
C          5.61155        1.43282        0.00000
C          7.05555        1.43282        0.00000
N          7.55654        2.79887        0.02135
H          0.62571       -0.96846       -0.02400
H          0.63000        0.41153       -0.89151
H          2.79707       -0.56159       -0.84094
H          2.75045       -0.51570        0.92182
H          2.60388        1.98393        0.87159
H          2.60917        1.96148       -0.88778
H          7.43726        0.92071       -0.88959
H          7.43957        0.89768        0.87435
H          7.18911        3.29612       -0.78879
H          8.56904        2.78508       -0.08239
