15
-1545.22
C          1.00000        0.00000        0.00000
C          2.44400        0.00000        0.00000
C          3.63416        0.00000        0.00000
C          5.07816        0.00000        0.00000
C          5.45553        1.44228        0.08696
C          5.66097        2.13009        1.41289
O          6.76775        1.67550        0.62036
H          0.60608        1.02091        0.01191
H          0.60594       -0.52067        0.87817
H          0.60591       -0.50008       -0.89003
H          5.47741       -0.43517       -0.92150
H          5.47486       -0.57447        0.84383
H          5.16123        2.02782       -0.77557
H          5.43866        1.58846        2.32296
H          5.48951        3.19704        1.46667
