18
-1767.04
N          0.92969        0.13140        0.27667
C          2.35579        0.05290       -0.01293
C          3.10662        1.03662        0.92059
C          4.10800       -0.10226        1.20943
C          3.00288       -1.09863        0.79253
C          2.62932        0.16322       -1.46033
C          2.39969       -0.85360       -2.30218
H          0.68426       -0.00917        1.25419
H          0.37331       -0.53589       -0.25494
H          2.55983        1.35764        1.81681
H          3.54387        1.92572        0.45542
H          4.97833       -0.10499        0.54326
H          4.45234       -0.18122        2.24371
H          3.36225       -1.96605        0.23013
H          2.42154       -1.46883        1.64667
H          3.01056        1.10643       -1.84228
H          2.00891       -1.80690       -1.96322
H          2.59874       -0.74383       -3.36424
