14
-1428.79
C          0.95120       -0.00267        0.08959
C          2.46030        0.02639       -0.02743
C          3.19830        1.07105        0.86110
C          4.21653       -0.00214        1.31838
C          3.22396       -1.05168        0.77735
O          3.09124       -2.24578        0.93592
H          0.53984       -0.86814       -0.44063
H          0.51376        0.89900       -0.35162
H          0.62600       -0.06085        1.13396
H          2.78893        0.04947       -1.07437
H          2.59561        1.47099        1.68568
H          3.63365        1.91332        0.31479
H          5.16644        0.00509        0.77644
H          4.39350       -0.05039        2.39424
