14
-1384.38
C          0.22249        0.63805        0.79351
C          1.11610        0.07286       -0.26596
N          2.34585       -0.23071        0.00226
N          3.02436       -0.72677       -1.06253
C          4.40481       -1.16316       -0.79189
C          5.05757       -1.69719       -2.00043
N          5.57618       -2.09581       -2.96148
H         -0.63986       -0.02189        0.91753
H         -0.13192        1.61995        0.46971
H          0.75254        0.73346        1.74421
H          0.67014       -0.06953       -1.26749
H          3.03743       -0.06556       -1.84466
H          4.39408       -1.93633       -0.01538
H          4.98603       -0.31652       -0.40887
