15
-1464.53
C          1.01249       -0.02343       -0.01301
N          2.46555        0.01195        0.04741
C          2.96070        1.38568        0.00000
C          4.40470        1.38568        0.00000
C          5.59486        1.38568        0.00000
C          7.03886        1.38568        0.00000
H          0.67092       -1.06224        0.03110
H          0.63699        0.41428       -0.94377
H          0.56742        0.50518        0.83626
H          2.85272       -0.50033       -0.74418
H          2.59158        1.94479        0.86749
H          2.59347        1.89137       -0.90093
H          7.43295        2.40652       -0.01179
H          7.43288        0.86502       -0.87819
H          7.43289        0.88543        0.88997
