12
-1326.49
O          1.96714       -1.22156        0.05736
C          1.79220       -0.01449       -0.07502
C          2.87547        1.04008        0.04133
C          4.25223        0.44822       -0.01115
C          5.02552        0.25096        1.06846
C          6.32785       -0.31373        0.97608
N          7.39645       -0.75833        0.90542
H          0.77770        0.38403       -0.24843
H          2.70519        1.59457        0.97018
H          2.75594        1.74093       -0.79162
H          4.61639        0.15915       -0.99695
H          4.67675        0.50820        2.06261
