15
-1500.36
C         -1.38531        0.78262        0.59337
C         -1.19425       -0.29976       -0.43462
O         -0.35445       -1.40079       -0.02757
C          0.98296       -1.25558       -0.50893
C          1.56793        0.02934        0.05503
O          0.88208        1.18920       -0.43104
C         -0.54762        1.05115       -0.62394
H         -2.35858        1.25611        0.64960
H         -0.89346        0.67596        1.55090
H         -2.03975       -0.53737       -1.07164
H          1.55924       -2.12137       -0.17040
H          0.96800       -1.24866       -1.60425
H          1.51194        0.03982        1.14945
H          2.61884        0.12463       -0.23486
H         -0.98399        1.69738       -1.37993
