19
-1915.48
C          1.02142        0.12712        0.19917
C          2.50651       -0.06899       -0.07715
C          2.84118       -1.50648       -0.51797
C          2.79261       -1.48174       -2.04983
C          3.24521       -0.09471       -2.40228
C          2.27501        1.04741       -2.49287
C          3.02389        0.79030       -1.20785
H          0.80125        1.17988        0.40541
H          0.71370       -0.46171        1.06991
H          0.39874       -0.18602       -0.64517
H          3.05872        0.16256        0.84151
H          2.17875       -2.26397       -0.08820
H          3.86602       -1.74379       -0.20343
H          3.44756       -2.24636       -2.47807
H          1.77328       -1.66044       -2.40952
H          4.19514       -0.04560       -2.91611
H          2.56808        1.91167       -3.08041
H          1.21690        0.82727       -2.55395
H          3.81477        1.46864       -0.91502
