15
-1481.17
C          0.93144       -0.00864        0.96176
C          0.29084       -1.02157       -0.02883
C          0.75808       -0.02715       -1.13012
C          0.28935        0.99863       -0.04737
N         -1.16576        0.74587        0.06618
C         -1.18942       -0.72188        0.09410
H          2.02699       -0.00793        1.00189
H          0.54683       -0.00128        1.98664
H          0.65094       -2.04816       -0.04898
H          0.20999       -0.03850       -2.07785
H          1.83219       -0.02927       -1.35004
H          0.63215        2.03088       -0.08830
H         -1.57996        1.11001        0.92388
H         -1.76563       -1.12164       -0.74592
H         -1.60808       -1.10116        1.03208
