15
-1524.31
N          1.41027        0.30145        0.55373
C          2.55241        0.00080        0.03479
C          2.91507       -1.43870       -0.24714
C          4.20843       -1.32560       -1.04446
C          4.61797        0.11213       -0.92739
C          3.85721        1.17431       -1.66440
N          3.55915        0.90028       -0.25953
H          1.39905        1.32121        0.67962
H          2.12264       -1.95081       -0.79785
H          3.08096       -1.95029        0.70641
H          4.97665       -1.99774       -0.64969
H          4.04049       -1.58998       -2.09436
H          5.60435        0.29811       -0.53009
H          4.32854        2.13591       -1.81297
H          3.06688        0.90955       -2.35388
