17
-1705.93
C          0.53795        0.77115        0.33103
C          2.02698        0.76964        0.42302
C          2.80450        1.76283       -0.02145
O          4.17064        1.71504        0.09400
C          4.92190        2.75235       -0.39825
C          6.25335        2.77558       -0.27503
C          7.12043        3.87380       -0.79235
H          0.19797       -0.09577       -0.24366
H          0.15495        1.67420       -0.15509
H          0.10246        0.71229        1.33327
H          2.49188       -0.09864        0.88347
H          2.40908        2.65435       -0.48730
H          4.36369        3.53739       -0.88896
H          6.75034        1.95152        0.23088
H          6.54191        4.65472       -1.29614
H          7.84495        3.47164       -1.50711
H          7.67092        4.33534        0.03308
