12
-1351.31
C          0.92317        0.00054        0.00279
C          2.25660        0.00047       -0.00075
C          3.10506        1.17225       -0.00283
C          4.37373        0.72734       -0.00626
C          4.37225       -0.72620       -0.00647
C          3.10531       -1.17075       -0.00318
H          0.35862        0.92685        0.00443
H          0.35914       -0.92599        0.00415
H          2.77507        2.19837       -0.00180
H          5.26589        1.33409       -0.00853
H          5.26416       -1.33336       -0.00893
H          2.77513       -2.19643       -0.00245
