11
-1099.93
O          0.93761        0.06925        0.01517
C          2.36104        0.01674        0.01586
C          2.92739        1.43282        0.00000
C          4.37139        1.43282        0.00000
C          5.56155        1.43282        0.00000
H          0.62065       -0.85029        0.02542
H          2.68623       -0.54516       -0.86697
H          2.68616       -0.52561        0.91084
H          2.54261        1.98425        0.86636
H          2.54263        1.96493       -0.87838
H          6.62744        1.43768       -0.00005
