14
-1347.5
O          1.95909       -0.34576       -1.26455
C          2.37895        0.11459        0.01685
C          3.19553        1.38593       -0.15291
C          2.44662        2.64493       -0.60862
C          3.04174        3.28444        0.64080
O          3.49046        1.99894        1.13657
H          1.46906       -1.17322       -1.11741
H          2.98277       -0.66848        0.48545
H          1.48990        0.28935        0.63118
H          4.12875        1.20899       -0.70280
H          1.35526        2.57265       -0.60051
H          2.78468        3.07095       -1.55620
H          3.88633        3.95847        0.46917
H          2.32039        3.75162        1.31629
