15
-1470.47
N          1.13440        0.03113        0.49227
C          2.31985        0.03479       -0.01773
C          3.12292       -1.26420       -0.10691
O          4.12542       -1.26054       -1.12698
C          4.91770       -0.06893       -1.06159
C          4.05392        1.17523       -1.30151
N          2.90258        1.21816       -0.41250
H          0.77271        0.98329        0.43458
H          2.45481       -2.10883       -0.28058
H          3.61927       -1.41888        0.86357
H          5.42372       -0.02192       -0.09107
H          5.68372       -0.13680       -1.83852
H          4.65192        2.08570       -1.18074
H          3.67458        1.15902       -2.33005
H          2.98414        1.88722        0.34625
