16
-1609.6
C          1.00133       -0.08544        0.22984
C          2.47561        0.09621       -0.06947
C          3.25981        1.10619        0.80035
N          3.90091       -0.04495        1.44727
C          5.26026       -0.07720        1.91075
C          3.42462       -0.94822        0.53953
O          3.75358       -2.08536        0.29435
H          0.60563       -0.95977       -0.29601
H          0.43446        0.79014       -0.10357
H          0.81571       -0.21958        1.30057
H          2.65208        0.23093       -1.14310
H          2.66633        1.70435        1.49645
H          3.96205        1.74462        0.25568
H          5.52233       -1.09540        2.20975
H          5.36237        0.60098        2.76056
H          5.92537        0.23185        1.10033
