10
-1159.08
N          0.90891        0.02104       -0.00705
C          2.06908        0.02124       -0.00358
C          3.49255        0.02232        0.00068
C          4.32197        1.12032        0.00395
N          5.59508        0.62541        0.00740
N          5.64410       -0.71871        0.00658
C          4.35825       -1.08421        0.00247
H          4.12861        2.18389        0.00414
H          6.47160        1.13903        0.01040
H          4.11289       -2.13924        0.00097
