16
-1599.82
C          1.06413        0.06693       -0.01012
C          2.54650       -0.02515       -0.05230
C          3.29481       -1.12742       -0.05305
C          4.72447       -0.75127       -0.05621
N          5.32893       -1.09780        1.22777
C          4.61346        0.75945       -0.33098
O          3.25775        1.17280       -0.05318
H          0.59904       -0.92337       -0.02649
H          0.69429        0.62874       -0.87320
H          0.74114        0.57944        0.90085
H          2.92796       -2.14168       -0.02413
H          5.27807       -1.24610       -0.86056
H          4.80948       -0.62079        1.96627
H          6.27150       -0.71510        1.26987
H          4.82281        0.97888       -1.38572
H          5.30151        1.35635        0.27742
