18
-1756.68
C          1.91198       -1.29577        0.84311
C          1.86738       -0.05410       -0.03591
C          3.07815        0.85590        0.16449
N          4.32445        0.22252       -0.21400
C          4.74344        0.16619       -1.52378
C          6.03751       -0.57570       -1.72607
O          4.12668        0.66376       -2.45969
H          0.99435       -1.87876        0.71759
H          2.00105       -1.02608        1.89999
H          2.75643       -1.93970        0.57881
H          0.95917        0.51246        0.20090
H          1.79144       -0.35991       -1.08579
H          3.16922        1.15101        1.21558
H          2.95300        1.76656       -0.43150
H          4.83217       -0.29317        0.49167
H          6.51058       -0.83640       -0.77531
H          6.72699        0.05833       -2.29024
H          5.83844       -1.49435       -2.28414
