13
-1300.46
C         -0.46268        1.38246       -0.20999
O         -1.55291        0.47975       -0.11216
C         -1.22586       -0.84667       -0.50676
C         -0.23354       -1.38379        0.47947
N          1.01066       -1.02282        0.56608
N          1.52833       -0.17464       -0.41109
C          0.89787        0.92146       -0.71131
H         -0.32168        1.87408        0.75666
H         -0.78528        2.16488       -0.90426
H         -0.85083       -0.87304       -1.53216
H         -2.13376       -1.45361       -0.45287
H         -0.61934       -2.08038        1.24169
H          1.40795        1.61424       -1.39945
