13
-1387.84
O          1.07587        0.37437       -0.85875
C          2.02251        0.28447       -0.08061
C          3.22073        1.21349       -0.07846
C          3.81333        1.35663        1.32505
O          3.47151        2.66386        1.83816
C          2.99143        3.33562        0.73680
C          2.83281        2.61419       -0.36597
H          2.08459       -0.57951        0.60371
H          3.96369        0.81202       -0.77358
H          4.90885        1.29594        1.28936
H          3.45752        0.60273        2.03501
H          2.76553        4.37671        0.89806
H          2.43580        2.97261       -1.30478
