17
-1787.48
C          1.02884        0.03437        0.11988
C          2.54763       -0.02176       -0.04728
C          2.97644       -1.24881       -0.87686
C          3.43945       -0.66545       -2.17473
C          3.49874        0.66914       -2.13106
C          3.06985        1.15507       -0.84403
C          3.14987        2.42675       -0.43762
H          0.72752        0.91805        0.69376
H          0.66819       -0.85048        0.65606
H          0.51541        0.07279       -0.84823
H          3.01846       -0.06067        0.94301
H          2.15952       -1.96062       -1.03061
H          3.80631       -1.77550       -0.39358
H          3.72457       -1.26303       -3.02956
H          3.83562        1.30488       -2.93767
H          2.82033        2.71755        0.55454
H          3.55135        3.20442       -1.07859
