18
-1707.74
C          1.19002       -0.22904       -0.45069
N          2.64122       -0.09856       -0.48261
C          3.07549        1.05054        0.31319
C          4.56937        1.10246        0.28613
O          5.17446        1.62759        1.47949
C          5.39129        0.23735        1.20576
C          6.79302       -0.11919        0.86714
H          0.89046       -1.10068       -1.04008
H          0.69900        0.65147       -0.87664
H          0.82775       -0.38297        0.57114
H          2.94028        0.02918       -1.44835
H          2.71642        0.95478        1.34554
H          2.67449        1.98285       -0.10028
H          4.97788        1.41131       -0.66590
H          4.89309       -0.49950        1.82097
H          7.31294        0.69670        0.35320
H          6.81069       -0.99834        0.21514
H          7.35230       -0.35820        1.77723
