15
-1554.71
O          0.93961        0.06697        0.01517
C          2.36328        0.01640        0.01586
C          2.92739        1.43282        0.00000
C          4.37139        1.43282        0.00000
C          5.56155        1.43282        0.00000
C          6.96755        1.43282        0.00000
C          7.66877        2.57150        0.00044
H          0.62366       -0.85317        0.02549
H          2.68908       -0.54539       -0.86674
H          2.68894       -0.52544        0.91088
H          2.54242        1.98402        0.86640
H          2.54243        1.96448       -0.87853
H          7.48311        0.47717       -0.00040
H          7.18166        3.54187        0.00082
H          8.75329        2.55344        0.00041
