17
-1662.51
C          0.48810        1.87058       -0.36249
N          1.62266        1.15782        0.17726
C          2.91957        1.60731        0.08801
N          3.25102        2.84933       -0.03493
C          4.04611        0.57126        0.15235
C          3.93566       -0.37540       -1.01029
C          3.76511       -1.69904       -0.89590
H         -0.41650        1.26586       -0.24759
H          0.63015        2.07400       -1.42834
H          0.32848        2.81453        0.16681
H          1.53297        0.14734        0.09886
H          2.41174        3.42913       -0.02487
H          3.97220        0.04563        1.11107
H          5.01637        1.07883        0.11877
H          4.00935        0.06978       -2.00119
H          3.70209       -2.18599        0.07235
H          3.70102       -2.32775       -1.77892
