15
-1538.31
O          1.09423        0.03867        0.34966
C          2.29543        0.01702        0.08288
C          3.06504       -1.27540        0.00180
C          3.99689       -1.20649       -1.19111
O          4.81687       -0.03651       -1.11985
C          4.03364        1.15617       -1.21902
C          3.10457        1.28274       -0.02855
H          2.37409       -2.11786       -0.09616
H          3.62901       -1.38076        0.93448
H          4.65998       -2.07743       -1.19732
H          3.44315       -1.20462       -2.13755
H          4.72323        2.00572       -1.24611
H          3.47953        1.14885       -2.16564
H          3.67180        1.39323        0.90180
H          2.44004        2.14323       -0.14746
