19
-1838.66
C          2.19449        4.56097       -0.81985
C          3.30762        3.88683       -0.04349
O          3.87374        2.86422       -0.85831
C          4.94447        2.16047       -0.20121
C          5.91981        1.48348       -1.12755
C          6.32415        2.73288       -0.39399
C          7.31545        2.67429        0.71629
H          1.73983        5.36402       -0.23260
H          1.41852        3.83652       -1.08827
H          2.57650        4.98047       -1.75666
H          2.91032        3.44567        0.87670
H          4.07952        4.62018        0.21516
H          4.71831        1.64078        0.72498
H          5.73617        1.55585       -2.19301
H          6.33617        0.53403       -0.81343
H          6.41540        3.64752       -0.96965
H          7.27521        1.72258        1.25460
H          7.12407        3.47923        1.43202
H          8.32790        2.80110        0.32292
