17
-1622.21
C          0.89051        0.03547       -0.24500
C          2.37238        0.03583        0.03319
C          2.71122        0.00871        1.50207
C          3.26885       -0.73566       -0.91036
C          3.26233        0.76619       -0.95370
N          4.44803        1.50097       -0.52834
H          0.67327        0.04639       -1.31892
H          0.42058        0.91780        0.20132
H          0.42245       -0.85801        0.18117
H          3.78449       -0.09956        1.68726
H          2.21212       -0.83605        1.98905
H          2.37331        0.93062        1.98584
H          2.81806       -1.26227       -1.74410
H          4.14112       -1.23957       -0.51060
H          2.77176        1.21368       -1.81699
H          4.96853        1.00341        0.19111
H          4.18744        2.39810       -0.12126
