17
-1665.52
C          0.97685        0.00745       -0.02680
C          2.49374        0.03352        0.01097
O          2.96727        0.18685       -1.33171
C          3.06889        1.14120        0.86898
C          4.46685        0.62991        1.16482
O          4.43445       -0.80326        1.06406
C          3.11147       -1.20201        0.65489
H          0.54597       -0.10068        0.97330
H          0.61999       -0.82208       -0.64793
H          0.58453        0.92706       -0.47466
H          3.90399       -0.08384       -1.34687
H          2.51150        1.23640        1.80864
H          3.09568        2.11936        0.37957
H          5.18979        0.99767        0.42932
H          4.81213        0.91916        2.16154
H          3.20325       -2.04593       -0.03478
H          2.56982       -1.51997        1.55226
