16
-1579.04
O          1.36640       -0.28411       -0.55033
C          2.28010        0.06071        0.19579
C          2.94634        1.41493        0.13260
N          4.33103        1.23053       -0.31411
C          5.07313        2.49619       -0.33555
C          5.97413        2.83767        0.81586
C          6.56586        2.44550       -0.50716
H          2.67138       -0.62724        0.96544
H          2.90472        1.85561        1.13369
H          2.39015        2.05277       -0.56138
H          4.31711        0.82399       -1.25295
H          4.57184        3.32397       -0.83494
H          6.06222        2.13245        1.63508
H          6.04546        3.87702        1.11540
H          7.03121        3.21891       -1.10517
H          7.04785        1.47836       -0.57735
