19
-1792.51
C          1.14016       -0.43869        0.53527
C          2.42197       -0.19724       -0.27009
C          2.64508       -1.31971       -1.29102
O          1.67387       -1.28497       -2.33022
C          2.36040        1.20352       -0.91621
C          3.59608        1.57822       -1.72720
O          4.75695        1.47626       -0.91399
H          1.04235        0.30446        1.33408
H          1.15523       -1.42832        1.00277
H          0.24692       -0.37202       -0.09382
H          3.25897       -0.22383        0.43845
H          2.60477       -2.30378       -0.81120
H          3.63156       -1.23228       -1.75570
H          0.82372       -1.55565       -1.94261
H          2.24240        1.94077       -0.11115
H          1.47445        1.29012       -1.55713
H          3.51000        2.61180       -2.07683
H          3.71679        0.93174       -2.60081
H          5.51082        1.74988       -1.46395
