7
-677.16
C          0.99382        0.00934       -0.00221
C          2.48917        0.03821       -0.01128
O          3.13977        1.04803       -0.26597
H          0.65238       -1.01326       -0.19271
H          0.60307        0.66173       -0.78594
H          0.62986        0.33137        0.97585
H          2.98792       -0.88891        0.31445
