14
-1429.87
C          1.03094        0.00367       -0.12579
C          2.53485       -0.02897       -0.02363
C          3.11739       -1.41501       -0.05033
C          3.22325        1.12385        0.08062
C          4.69262        1.25790        0.18296
O          5.21975        2.36062        0.28061
H          0.63375        1.02420       -0.10823
H          0.58222       -0.54160        0.71100
H          0.70463       -0.46322       -1.06113
H          2.69691       -2.01410        0.76404
H          4.20267       -1.43977        0.05883
H          2.87241       -1.90561       -0.99916
H          2.70801        2.08070        0.09380
H          5.28662        0.33455        0.16593
