11
-1231.52
O          1.03943       -0.08029        0.14660
C          2.39433        0.00296        0.03243
C          3.06685        1.21719       -0.02524
N          4.41433        1.29984       -0.13986
C          5.05554        0.10991       -0.19273
C          4.38115       -1.09981       -0.13451
N          3.03600       -1.17848       -0.02037
H          0.67804        0.81810        0.17172
H          2.54781        2.16672        0.01774
H          6.13494        0.15282       -0.28468
H          4.90890       -2.04559       -0.17831
