19
-1814.1
C          2.96864       -0.96633       -1.01687
C          2.53289       -0.07160        0.13589
C          3.16240        1.32676        0.07131
C          2.58687        2.23753        1.15556
C          4.68137        1.27426        0.20143
N          5.45081        1.74909       -0.81320
N          5.27905        0.80481        1.24763
H          2.44056       -1.92436       -0.97020
H          4.04252       -1.17593       -0.97732
H          2.74296       -0.50226       -1.98283
H          2.77913       -0.56684        1.08190
H          1.44081        0.02333        0.10365
H          2.92082        1.77433       -0.90164
H          2.73102        1.81591        2.15652
H          1.51257        2.38658        1.00540
H          3.07097        3.21963        1.13787
H          5.07580        2.50138       -1.37622
H          6.41737        1.88091       -0.53316
H          4.59562        0.47489        1.93764
