19
-1786.83
C          1.19149       -0.12743       -0.11653
C          2.65987        0.12466       -0.14125
N          3.46774       -0.36315       -1.24930
C          3.32437        1.10637       -1.10031
C          2.49753        1.84253       -2.12523
C          4.54285        1.86475       -0.60436
N          5.60079        1.75578       -1.60545
H          0.67828        0.69620        0.38932
H          0.98034       -1.04733        0.43911
H          0.75824       -0.23973       -1.11499
H          3.09420        0.00739        0.84732
H          2.89346       -0.69562       -2.02417
H          1.72791        1.21289       -2.58244
H          3.12948        2.21793       -2.93710
H          1.99958        2.69861       -1.65842
H          4.90355        1.45251        0.34495
H          4.29633        2.91811       -0.43311
H          5.70467        0.75946       -1.81428
H          6.48200        2.04755       -1.18876
