16
-1565.57
C          2.99925       -1.02745       -0.68439
C          2.66872       -0.04210        0.42937
C          3.13108        1.38336        0.10940
C          2.61282        2.37021        1.15102
C          4.64220        1.45677        0.09860
O          5.29146        1.82280       -0.87733
H          2.61298       -2.02106       -0.43464
H          4.07999       -1.11623       -0.83274
H          2.54546       -0.71622       -1.63083
H          3.12804       -0.39404        1.36133
H          1.58296       -0.04898        0.58402
H          2.76380        1.68408       -0.87889
H          2.96172        2.11066        2.15715
H          1.51797        2.38626        1.16308
H          2.96377        3.38539        0.93392
H          5.14877        1.16456        1.03476
