12
-1102.46
C          0.91880       -0.21392       -0.24594
C          2.41979       -0.01593       -0.18221
O          2.68321        1.33861        0.18231
N          4.07281        1.51756        0.24867
C          4.31288        2.73866        0.58864
H          0.67216       -1.24439       -0.51643
H          0.47181        0.46158       -0.98288
H          0.45774        0.01845        0.71975
H          2.86836       -0.22579       -1.15956
H          2.85534       -0.68745        0.56598
H          5.35203        3.08422        0.69686
H          3.51598        3.47590        0.78275
