19
-1902.7
C          0.94487        0.14679       -0.87312
C          2.41214        0.07785       -0.60592
C          3.21388        1.15150       -0.51651
C          4.65390        1.11591       -0.24673
C          5.57823        0.50951       -1.27404
C          5.56080        1.99877       -1.06995
C          6.72186        2.68160       -0.43181
H          0.70841       -0.39231       -1.79572
H          0.59037        1.17704       -0.97935
H          0.39416       -0.32022       -0.05079
H          2.83758       -0.91491       -0.48198
H          2.77579        2.14097       -0.63505
H          4.90857        0.96577        0.79847
H          5.15633        0.12195       -2.19477
H          6.42830       -0.05749       -0.91176
H          5.12653        2.60533       -1.85707
H          7.17492        2.07418        0.35906
H          6.40354        3.63172        0.00906
H          7.49172        2.89426       -1.18057
