17
-1765.39
C          0.87504        0.54470        0.02109
C          2.32382        0.34289       -0.28350
C          3.30244        1.12876        0.19257
C          4.73111        0.98019       -0.08218
C          5.28052       -0.24925       -0.12821
C          5.64925        2.11839       -0.11210
C          5.31461        3.35890       -0.48961
H          0.31737        0.70088       -0.90728
H          0.70376        1.40822        0.67146
H          0.47268       -0.34268        0.51918
H          2.55855       -0.49015       -0.94148
H          3.04262        1.97746        0.82403
H          4.68628       -1.15136       -0.02509
H          6.34663       -0.39755       -0.26929
H          6.68018        1.92971        0.18410
H          4.31205        3.61323       -0.81807
H          6.05536        4.15256       -0.49169
