12
-1272.93
N          0.90992       -0.05319       -0.00038
C          2.25091       -0.01033       -0.00061
C          3.03655        1.11676       -0.00321
O          2.80426        2.41590       -0.00607
O          4.35237        0.78918       -0.00262
C          4.40342       -0.57231        0.00039
C          3.13325       -1.10904        0.00174
H          0.35900        0.80104       -0.00185
H          0.37433       -0.91348        0.00206
H          3.69987        2.79405       -0.00705
H          5.39588       -1.00099        0.00122
H          2.88782       -2.16061        0.00410
