14
-1379.81
C          1.02381        0.22757       -0.09344
C          2.52799        0.09121        0.08157
C          3.24578        1.43657        0.02305
O          2.83161        2.27400        1.08624
C          3.98506        2.49364        1.73813
N          5.05425        1.94931        1.28825
O          4.65425        1.22325        0.14996
H          0.55028       -0.75882       -0.06976
H          0.78297        0.69674       -1.05241
H          0.58366        0.83149        0.70592
H          2.93261       -0.57486       -0.68973
H          2.72924       -0.39319        1.04537
H          3.05485        1.94349       -0.92942
H          3.89146        3.13903        2.62043
