16
-1515.32
N          1.99208       -0.52283       -1.31742
C          2.29027        0.01028        0.01614
C          3.13583        1.28167       -0.08238
O          4.37133        0.99723       -0.80318
C          2.36997        2.55026       -0.51539
O          2.89013        3.28674        0.62505
C          3.30083        2.04280        1.24977
H          1.61559       -1.46539       -1.22624
H          2.88452       -0.62590       -1.80978
H          2.83549       -0.74988        0.58784
H          1.34724        0.20027        0.54068
H          4.81149        1.86384       -0.87745
H          1.27672        2.49976       -0.48934
H          2.69482        2.99544       -1.46015
H          4.32435        2.10477        1.63025
H          2.62366        1.76323        2.06311
