13
-1316.19
C          1.08614        0.16993        0.00399
C          2.55482        0.01343        0.00030
N          3.34414        1.09023       -0.00578
O          4.64081        0.58885       -0.00765
N          4.64037       -0.80126       -0.00242
C          3.35094       -1.14851        0.00287
C          2.96682       -2.57489        0.00935
H          0.57271       -0.79539       -0.01196
H          0.75843        0.73660       -0.87385
H          0.76046        0.70728        0.90079
H          1.88139       -2.70512        0.03379
H          3.38350       -3.08047        0.88691
H          3.34409       -3.07719       -0.88770
