19
-1909.06
C          1.88141       -0.30802       -1.31821
C          2.21681        0.24129        0.06312
C          2.87851        1.60910       -0.00044
C          2.03966        2.79600       -0.11963
C          0.70109        2.83311       -0.18856
C          4.22618        1.67189        0.07704
C          5.13275        2.86254        0.05260
H          1.38481       -1.27926       -1.22552
H          2.78961       -0.45144       -1.91361
H          1.21430        0.35927       -1.87251
H          2.88000       -0.47690        0.56371
H          1.31766        0.27141        0.68941
H          2.54269        3.75833       -0.15630
H          0.07754        1.94794       -0.16508
H          0.18840        3.78641       -0.27422
H          4.77207        0.73204        0.16467
H          4.61499        3.82172        0.01031
H          5.79457        2.80016       -0.81718
H          5.75647        2.86369        0.95234
