13
-1385.08
C          0.98940       -0.02559        0.01654
C          2.52000        0.00000        0.00000
O          2.97231       -0.65051        1.18731
C          3.01807       -0.77083       -1.15570
C          3.42723       -1.39697       -2.09667
C          3.00202        1.36117        0.00000
C          3.39930        2.48307        0.00000
H          0.56185        0.44706       -0.87576
H          0.59413        0.49476        0.89776
H          0.61264       -1.05456        0.06912
H          2.78443       -0.04585        1.92316
H          3.79786       -1.95267       -2.92676
H          3.76332        3.48476       -0.00644
