14
-1366.48
O          2.09912       -0.86056        0.73197
C          3.12769       -0.42706       -0.14066
C          3.06882        1.06040       -0.19364
C          4.10646        1.85820        0.09560
C          3.95263        3.32418        0.02449
N          4.94105        4.11801        0.28147
O          4.50945        5.44153        0.13424
H          2.16668       -1.82840        0.78741
H          2.94757       -0.84679       -1.13475
H          4.08885       -0.79215        0.23411
H          2.10889        1.48311       -0.48008
H          5.07792        1.48253        0.39218
H          2.95664        3.70739       -0.26015
H          5.31115        5.94829        0.36129
