12
-1223.24
O          1.09764        0.02629        0.81812
C          2.44149        0.00763        0.30802
C          2.66728        0.73789       -0.98415
O          4.02336        1.11924       -1.31878
N          4.73246       -0.08376       -1.64040
C          3.96609       -1.10436       -1.44457
C          2.62941       -0.75610       -0.97368
H          0.95580        0.79548        1.39800
H          3.25335       -0.00571        1.02836
H          1.84863        1.27823       -1.43980
H          4.26316       -2.14984       -1.61200
H          1.78194       -1.24884       -1.42662
