14
-1368.11
C          0.92104        0.23510       -0.20367
O          2.34762        0.20717       -0.31474
C          3.04425        1.33352       -0.14253
N          4.33506        1.33448       -0.14575
O          4.73386        2.67550        0.08216
C          3.60012        3.50394       -0.19202
C          2.40105        2.63987        0.10229
H          0.56105       -0.79717       -0.23082
H          0.48924        0.77521       -1.05097
H          0.61283        0.68237        0.74591
H          3.63843        3.80492       -1.24488
H          3.63235        4.39958        0.43460
H          1.56414        2.86139       -0.56069
H          2.09946        2.70334        1.15149
