16
-1654.27
C          1.12076        0.24891        0.10757
C          2.60208       -0.05147       -0.08227
C          2.84200       -0.75020       -1.35725
N          3.02099       -1.30928       -2.35919
C          3.41046        1.21794       -0.18405
C          3.84685        1.93617        1.07072
C          4.86704        1.24066        0.21476
H          0.95194        0.79301        1.04312
H          0.53434       -0.67599        0.14115
H          0.72460        0.86467       -0.70838
H          2.95421       -0.67107        0.75057
H          3.11164        1.84224       -1.02246
H          3.61545        1.49980        2.03613
H          3.83578        3.02106        1.06492
H          5.54244        1.85408       -0.37330
H          5.32224        0.33513        0.59973
