11
-1160.48
N          1.01489       -0.01959        0.01902
C          2.47000        0.00000        0.00000
C          2.95202        1.36117        0.00000
C          3.34930        2.48307        0.00000
C          3.86151        3.92725       -0.00080
C          4.26213        5.05730       -0.00098
H          0.69358       -0.98199       -0.05847
H          0.66629        0.46716       -0.80530
H          2.82785       -0.53263       -0.88748
H          2.84543       -0.53852        0.87610
H          4.61684        6.06191        0.00046
