15
-1508.99
C          1.82285        0.06254       -0.71162
C          1.85646       -0.08789        0.78508
C          0.54151        0.02438        0.06920
C         -0.34843        1.20413        0.21499
O         -1.67091        0.70716       -0.02431
C         -1.60167       -0.71476        0.13794
O         -0.25623       -1.15607       -0.01832
H          2.14722        1.00571       -1.13311
H          2.07209       -0.80340       -1.31534
H          2.12762       -1.05539        1.19152
H          2.19934        0.75440        1.37317
H         -0.31397        1.61882        1.22773
H         -0.13690        1.99610       -0.50800
H         -2.24049       -1.19452       -0.60785
H         -1.95084       -0.97700        1.14126
