16
-1546.98
C          1.12597        1.54318        0.25680
N          2.27964        1.09030       -0.09872
O          3.22595        2.11799        0.04638
C          4.49638        1.63517       -0.39603
C          5.48299        2.75899       -0.33094
C          6.32771        2.97764        0.89867
C          6.96303        2.47516       -0.36901
H          0.24250        0.88782        0.21602
H          0.96781        2.57740        0.60684
H          4.41064        1.28773       -1.43204
H          4.80296        0.79392        0.23684
H          5.12943        3.63244       -0.86757
H          6.22843        2.28527        1.72728
H          6.52907        3.99986        1.19878
H          7.59454        3.15807       -0.92640
H          7.29527        1.44340       -0.39553
