16
-1546.36
C          3.12412       -1.15661       -0.43232
C          2.43842        0.06756        0.15376
C          3.35775        1.25081        0.18031
C          3.49800        2.13514       -1.03137
C          2.78271        2.64198        0.18967
O          3.48666        3.61172        0.97555
H          2.44236       -2.01220       -0.43197
H          4.01135       -1.42456        0.14961
H          3.44231       -0.97103       -1.46273
H          2.11468       -0.15397        1.17792
H          1.53388        0.28630       -0.42782
H          4.23855        1.06434        0.78341
H          2.89805        1.91755       -1.90802
H          4.47731        2.53545       -1.26161
H          1.70498        2.75166        0.12391
H          4.44468        3.44783        0.99706
