20
-1911.2
C          1.53109        0.67492        0.79632
N          2.97392        0.71009        0.98098
C          3.63031        1.36624       -0.14711
C          5.12603        1.38584        0.09779
C          5.56692        2.17135        1.31073
C          5.94335        0.17021       -0.29284
C          6.03200        1.42286       -1.11718
H          1.06271        0.21367        1.67111
H          1.25320        0.08743       -0.08456
H          1.11810        1.68459        0.69768
H          3.33106       -0.24001        1.06254
H          3.27443        2.39658       -0.25689
H          3.40149        0.83197       -1.07819
H          6.65433        2.30082        1.33887
H          5.27339        1.65695        2.23126
H          5.11230        3.16697        1.30937
H          5.43416       -0.68394       -0.72415
H          6.79898       -0.09601        0.31840
H          6.94882        2.00029       -1.06661
H          5.58277        1.41369       -2.10415
