18
-1759.32
C          1.03286       -0.00758       -0.12922
C          2.56352       -0.06969       -0.02102
C          2.94120       -0.76365        1.29861
C          3.14058       -0.87974       -1.19118
C          3.14483        1.35179       -0.03444
N          2.89426        2.09994       -1.14651
O          3.80519        1.83339        0.88075
H          0.70867        0.41508       -1.08630
H          0.60831        0.61921        0.66339
H          0.58881       -1.00590       -0.04430
H          2.54929       -0.21426        2.16268
H          4.02931       -0.82666        1.41703
H          2.54111       -1.78328        1.34192
H          2.83997       -0.46690       -2.16013
H          2.80013       -1.92086       -1.15831
H          4.23628       -0.88186       -1.16455
H          2.36030        1.77201       -1.93716
H          3.27128        3.03867       -1.16906
