18
-1698.79
C          1.05655       -0.16916       -0.05508
C          2.57399       -0.07108        0.02969
C          3.06632        1.38028        0.01085
O          2.52818        2.08349        1.12796
C          4.59725        1.44472        0.05137
C          5.11918        2.87401       -0.01826
H          0.74730       -1.21908       -0.07309
H          0.68343        0.31021       -0.96568
H          0.57763        0.30667        0.80635
H          3.01424       -0.62398       -0.80825
H          2.89671       -0.56301        0.95558
H          2.70295        1.87836       -0.89509
H          2.84583        1.64688        1.93642
H          5.01617        0.87103       -0.78397
H          4.96562        0.99135        0.98035
H          4.77989        3.36975       -0.93284
H          6.21359        2.87546       -0.01711
H          4.78180        3.46335        0.83949
