15
-1490.47
N          3.76744       -0.93483        0.84523
C          2.78109       -0.20740        0.05846
C          3.09280        1.24664       -0.09846
C          4.25497        1.85373        0.19754
C          4.40534        3.31081       -0.00457
N          5.66745        3.76454        0.21232
O          3.49455        4.05631       -0.33552
H          3.52338       -1.92456        0.84026
H          3.68354       -0.63907        1.81775
H          1.80006       -0.31526        0.53497
H          2.71066       -0.65920       -0.93691
H          2.27749        1.84636       -0.50137
H          5.10194        1.29715        0.57863
H          6.44594        3.16726        0.44539
H          5.83659        4.75147        0.07120
