15
-1445.16
C          0.83823       -0.31563       -0.00320
C          2.35324       -0.32020        0.10914
O          2.90430       -0.98517       -1.01633
C          2.86115        1.10537        0.21970
N          3.24076        1.75433       -0.83557
N          3.62430        3.04722       -0.49919
C          4.01018        3.69673       -1.54553
H          0.37588        0.18798        0.85140
H          0.45453       -1.33936       -0.06056
H          0.51481        0.19651       -0.91657
H          2.66160       -0.85996        1.00904
H          2.97912       -0.30932       -1.71764
H          2.83962        1.56765        1.22241
H          4.34846        4.73972       -1.44923
H          4.02096        3.25768       -2.55735
