15
-1423.22
C          2.36762       -1.06699       -0.56786
N          3.67554       -0.46084       -0.34509
N          3.68975        0.89441       -0.30521
C          4.87550        1.39132       -0.17864
C          4.99748        2.85533       -0.13112
C          4.71286        3.60368        1.14338
O          6.05396        3.32875        0.72115
H          2.46970       -2.15425       -0.62892
H          1.93294       -0.71633       -1.50899
H          1.68130       -0.82933        0.25047
H          4.08649       -0.86836        0.49920
H          5.79909        0.78852       -0.11441
H          4.84384        3.37288       -1.06999
H          4.32588        3.05376        1.99184
H          4.36132        4.62454        1.06755
