18
-1713.57
C          1.94685       -0.63161       -1.34178
C          2.41784       -0.10939        0.00811
C          3.13798        1.21906       -0.11391
N          4.42814        1.13929       -0.83505
C          2.37255        2.48496       -0.56246
O          2.97822        3.26355        0.50798
C          3.36014        2.03055        1.18574
H          1.38724       -1.56410       -1.21035
H          2.78924       -0.83904       -2.00865
H          1.29181        0.08989       -1.83979
H          3.06651       -0.85506        0.48155
H          1.54140       -0.00073        0.65795
H          4.94700        2.02146       -0.81896
H          4.33693        0.90064       -1.82198
H          1.28422        2.44947       -0.44513
H          2.61548        2.88703       -1.55065
H          4.38065        2.07729        1.57849
H          2.66948        1.81531        2.00839
