14
-1366.13
C          1.54375        0.08854        0.40399
N          2.81278       -0.22272       -0.27897
C          2.86058       -1.67973       -0.57656
C          3.05377       -2.51808        0.62387
N          3.19983       -3.18657        1.56211
N          3.05566        0.57569       -1.35850
C          4.16839        1.22367       -1.24411
H          1.51669        1.15090        0.67222
H          1.43567       -0.47215        1.33810
H          0.67977       -0.11867       -0.23780
H          3.71175       -1.86844       -1.24378
H          1.96319       -1.99074       -1.12546
H          4.48539        1.90636       -2.04785
H          4.84137        1.13423       -0.37281
