14
-1363.65
C          1.02653       -0.01159       -0.00165
C          2.53824       -0.01125        0.08413
C          3.10400        1.11644        0.91138
O          4.40648        0.64157        1.25289
C          4.24922       -0.77777        1.34648
O          3.00237       -1.17777        0.76794
H          0.67861       -0.87632       -0.57736
H          0.65568        0.89996       -0.47935
H          0.57520       -0.09779        0.99300
H          2.98000       -0.01730       -0.91928
H          2.54701        1.27414        1.84260
H          3.17142        2.06212        0.36716
H          5.07281       -1.26668        0.81861
H          4.26648       -1.07792        2.39830
