16
-1622.65
N          0.90209       -0.29224       -0.59601
C          2.07556       -0.17388        0.21207
C          2.55827       -1.51578        0.85872
C          3.86652       -0.59930        0.92116
C          3.42341       -0.26992       -0.57903
C          3.44716        0.60812        1.71524
C          2.22865        0.88395        1.22101
H          0.05465       -0.44862       -0.05338
H          0.72147        0.53252       -1.16540
H          2.61411       -2.40689        0.22247
H          2.11212       -1.79422        1.81929
H          4.83853       -1.04561        1.11946
H          3.81489        0.65768       -1.01020
H          3.53757       -1.07712       -1.31212
H          4.00078        1.11583        2.48827
H          1.55211        1.67495        1.49915
