14
-1556.22
C          0.97784        0.01005        0.03546
C          2.47490        0.03631       -0.02021
C          3.17770        1.24154       -0.05329
C          4.56269        1.20177       -0.11329
N          5.28253        0.06003       -0.14551
C          4.58284       -1.09392       -0.11686
C          3.19896       -1.15733       -0.05674
H          0.56305        1.01783        0.14351
H          0.64102       -0.58179        0.89270
H          0.57430       -0.42571       -0.88398
H          2.66530        2.19763       -0.03241
H          5.14697        2.11713       -0.13891
H          5.18266       -1.99898       -0.14558
H          2.69984       -2.12024       -0.03838
