18
-1780.45
N          0.78364        0.03916       -0.23212
C          2.22550       -0.09691       -0.03454
C          2.91698        1.27098       -0.05430
C          4.40123        1.14041        0.15501
C          5.31729        1.50980       -0.75256
C          6.73629        1.38398       -0.52530
C          7.65367        1.75894       -1.42416
H          0.36128       -0.88816       -0.26264
H          0.60283        0.46259       -1.14180
H          2.63614       -0.74084       -0.82075
H          2.40339       -0.59528        0.92537
H          2.51068        1.90582        0.74245
H          2.70568        1.77895       -1.00334
H          4.71491        0.73186        1.11388
H          4.99735        1.92572       -1.70611
H          7.06625        0.96639        0.42383
H          7.38237        2.18319       -2.38556
H          8.71200        1.64830       -1.20920
