16
-1591.66
O          0.92746       -0.02532       -0.07429
C          2.33252       -0.04535        0.15905
C          3.03994        1.24824       -0.33561
N          3.33299        1.24326       -1.77702
C          4.17529        0.10005       -2.14124
C          3.71824       -1.19970       -1.54697
C          2.86397       -1.27459       -0.51490
H          0.62855        0.89374       -0.00024
H          2.47982       -0.13071        1.24127
H          2.40981        2.11833       -0.12074
H          3.98017        1.38202        0.21468
H          3.81371        2.10245       -2.03468
H          5.21325        0.28385       -1.83621
H          4.17144        0.01050       -3.23304
H          4.09453       -2.11330       -2.00086
H          2.52941       -2.23726       -0.14353
