17
-1724.47
O          2.54588       -0.38901       -1.55084
C          2.40651        0.06321       -0.20654
C          3.26846        1.30561        0.01590
C          3.30595        1.72459        1.49318
C          3.34050        3.25340        1.50202
C          2.76615        3.60219        0.17037
C          2.72270        2.54146       -0.64232
H          1.95533       -1.15436       -1.65512
H          2.73005       -0.74812        0.45403
H          1.34680        0.26770       -0.01769
H          4.28179        1.13174       -0.36737
H          4.16967        1.29764        2.01465
H          2.40830        1.37744        2.02288
H          4.36307        3.63417        1.58754
H          2.74054        3.65589        2.32305
H          2.46457        4.60268       -0.10891
H          2.38835        2.56271       -1.67176
