19
-1778.35
C          1.09455        0.02434        0.02224
N          2.55386        0.01317       -0.00207
C          3.09718        1.02273        0.94299
C          4.14257       -0.02743        1.36335
C          3.08447       -1.06059        0.89827
C          3.59332       -2.27342        0.11870
N          4.32146       -3.19312        0.99791
H          0.70657       -0.83977       -0.52746
H          0.72200        0.92324       -0.48054
H          0.66824        0.00138        1.03221
H          2.42989        1.32708        1.75977
H          3.50449        1.92018        0.46824
H          5.06139       -0.00324        0.76542
H          4.40238       -0.04714        2.42445
H          2.40339       -1.35370        1.71190
H          4.25093       -1.97069       -0.70473
H          2.74528       -2.81252       -0.31854
H          5.18337       -2.74352        1.30773
H          4.61509       -4.00326        0.45138
