12
-1264.35
C          0.90137       -0.04985        0.00541
C          2.37413        0.02762        0.00236
C          3.16517        1.14687        0.00260
O          2.92968        2.44583        0.00526
O          4.47618        0.80377       -0.00068
N          4.57992       -0.58122       -0.00312
C          3.31835       -1.02332       -0.00121
H          0.55888       -1.08971       -0.00659
H          0.48709        0.45216       -0.87493
H          0.49226        0.43020        0.90028
H          3.81631        2.84762        0.00407
H          3.14391       -2.09067       -0.00250
