13
-1298.52
O          4.09978        2.30781       -3.13669
C          3.07174        2.50396       -2.50205
N          2.94032        2.39619       -1.13143
N          4.02436        1.93041       -0.35314
C          4.88953        3.04136        0.06489
C          5.97155        2.53572        0.92061
C          6.85807        2.13034        1.62035
H          2.12133        2.79450       -2.97889
H          2.02434        2.47262       -0.69644
H          4.59557        1.31934       -0.95067
H          4.30290        3.78103        0.62168
H          5.31680        3.54441       -0.81063
H          7.64426        1.76932        2.24282
