18
-1708.01
C          1.24337       -0.02920       -0.15262
N          2.69967        0.02658       -0.12992
C          3.33650       -0.54732       -1.30571
C          3.33961        0.95859       -1.07970
C          2.52418        1.82432       -2.00746
C          4.61901        1.61007       -0.59671
O          5.55523        1.68410       -1.66757
H          0.82243        0.89834        0.24943
H          0.91088       -0.84479        0.49828
H          0.80251       -0.21084       -1.13889
H          2.71505       -0.96104       -2.09111
H          4.24605       -1.10638       -1.11667
H          1.74382        1.26790       -2.53621
H          3.16425        2.27274       -2.77521
H          2.04910        2.63755       -1.44850
H          5.08441        1.05634        0.22668
H          4.42018        2.62727       -0.24398
H          5.79739        0.76898       -1.88526
