17
-1626.8
C          1.15929       -0.00196       -0.04678
N          2.61479       -0.11257       -0.04599
C          3.14855       -0.75721       -1.23327
C          3.25996        0.74488       -1.05002
C          4.55514        1.44559       -0.66456
C          5.91046        1.04880       -1.20080
N          5.24642        2.24749       -1.68427
H          0.85543        0.84806        0.57304
H          0.72387       -0.90518        0.39316
H          0.71508        0.13206       -1.04085
H          2.46288       -1.13218       -1.98277
H          4.03334       -1.36247       -1.08233
H          2.59686        1.34914       -1.66757
H          4.54550        1.89386        0.32785
H          5.97138        0.22552       -1.90054
H          6.77569        1.18673       -0.56536
H          5.64574        3.08632       -1.25986
