16
-1466.4
C          1.10803       -0.14302        0.09732
C          2.62835       -0.10957        0.06106
N          3.09178        1.27491       -0.01074
C          4.55149        1.34214       -0.03545
C          4.99888        2.79402       -0.10669
H          0.75497       -1.17837        0.13814
H          0.68027        0.32414       -0.79607
H          0.72022        0.38012        0.97779
H          2.97526       -0.67127       -0.81382
H          3.01939       -0.60095        0.95960
H          2.73737        1.79752        0.79003
H          4.94121        0.80754       -0.90888
H          4.97374        0.88052        0.86438
H          4.61253        3.28402       -1.00709
H          6.09195        2.85080       -0.13515
H          4.65505        3.35949        0.76627
