16
-1467.09
C          2.47193       -0.81457        0.63532
C          1.76095        0.51583        0.41122
N          2.72296        1.61731        0.19024
C          1.96830        2.79634       -0.27036
N          3.55105        1.85827        1.24502
C          4.74519        2.18507        0.87617
H          1.73612       -1.61897        0.73572
H          3.07613       -0.80036        1.54764
H          3.12494       -1.05919       -0.20854
H          1.11379        0.73611        1.26968
H          1.11638        0.39942       -0.46946
H          1.41093        2.57397       -1.18697
H          2.65391        3.61688       -0.50977
H          1.26913        3.15017        0.49555
H          5.50833        2.40646        1.63848
H          5.06056        2.25685       -0.17936
