13
-1414.42
C          1.00000        0.00000        0.00000
C          2.19016        0.00000        0.00000
C          3.63416        0.00000        0.00000
O          4.12355       -1.19684        0.64054
C          4.64792       -0.84163        1.93171
C          4.74753        0.63655        1.92711
C          4.16638        1.11611        0.82763
H         -0.06535       -0.00687        0.00388
H          4.04311        0.03080       -1.01436
H          5.62306       -1.31951        2.05705
H          3.96298       -1.19880        2.70699
H          5.19921        1.22313        2.71201
H          4.07620        2.15976        0.56790
