15
-1423.32
C          1.33165       -0.73900        0.83169
C          2.15972       -0.20282       -0.07473
C          2.52485        1.24731       -0.14092
O          3.94006        1.34561        0.06451
N          4.26552        2.70820        0.03322
C          4.64292        3.20053        1.25254
N          4.41759        2.68007        2.40737
H          1.11349       -1.80289        0.82319
H          0.86433       -0.13871        1.60677
H          2.61158       -0.84718       -0.82507
H          1.99421        1.82596        0.62487
H          2.26829        1.64324       -1.13033
H          4.87478        2.95555       -0.74365
H          5.17633        4.16247        1.17473
H          3.93138        1.79024        2.24023
