12
-1275.43
O          0.80981       -0.07627       -0.15461
C          1.84976        0.21574        0.44072
C          2.92058        1.16461       -0.08787
C          2.57219        2.65653       -0.25133
N          3.71707        2.94489        0.61929
C          3.80991        1.65932        1.05641
O          4.34029        1.20038        2.03737
H          2.04875       -0.23571        1.42853
H          3.49746        0.73675       -0.91513
H          1.62264        2.98632        0.18117
H          2.69139        3.05841       -1.26026
H          3.83620        3.68744        1.29668
