14
-1420.31
O          2.53870       -0.93420       -0.03041
C          1.94605        0.14062       -0.03664
C          2.61571        1.48279        0.08576
C          4.12935        1.36087       -0.00690
N          4.80459        2.62978        0.19182
C          4.75547        3.63456       -0.73897
O          4.10357        3.61733       -1.77254
H          0.84450        0.17144       -0.09836
H          2.31654        1.92393        1.04225
H          2.22337        2.11954       -0.71307
H          4.42381        0.96608       -0.98676
H          4.51223        0.67573        0.75776
H          5.43610        2.72953        0.97703
H          5.37784        4.49791       -0.44549
