17
-1708.51
C          1.01344       -0.06792       -0.46152
C          2.51600        0.16325       -0.30638
O          3.14114       -0.44050       -1.44352
C          2.97769        1.61485       -0.17389
C          2.15069        2.67043       -0.30667
C          4.38190        1.88990        0.13456
C          5.35840        0.99013        0.29923
H          0.45014        0.34475        0.38075
H          0.80321       -1.14180       -0.52017
H          0.63751        0.36684       -1.39434
H          2.83755       -0.39504        0.58135
H          3.38853        0.27993       -2.04805
H          1.09441        2.56021       -0.52745
H          2.49959        3.69368       -0.19821
H          4.65787        2.93967        0.23977
H          5.19951       -0.08007        0.21185
H          6.37019        1.31419        0.52512
