18
-1631.59
C          1.49212       -0.17945        0.89707
N          2.89760        0.18456        0.77580
C          3.09504        1.58621        0.34878
C          2.53644        2.60261        1.34722
C          4.60894        1.86090        0.12879
N          5.26618        0.81941       -0.67429
H          1.41332       -1.25694        1.07693
H          0.93183        0.04764       -0.01626
H          1.01794        0.31934        1.74797
H          3.31025       -0.39407        0.04044
H          2.59198        1.72979       -0.61739
H          2.94735        2.44376        2.34998
H          1.44557        2.54630        1.41129
H          2.78814        3.62354        1.03936
H          5.12554        1.92701        1.09509
H          4.73325        2.82559       -0.37544
H          5.30568       -0.02533       -0.10184
H          6.23870        1.08819       -0.81832
