17
-1646.05
C          2.64243        0.46739        1.54367
O          2.39514        1.67814        0.84109
C          3.44013        2.27638        0.15578
C          3.02901        3.63175       -0.37830
O          2.47947        4.40799        0.68522
C          4.66775        1.73689        0.00503
C          5.84838        2.32405       -0.70356
H          1.71347        0.17284        2.04465
H          3.40779        0.61257        2.31525
H          2.92186       -0.33975        0.85695
H          2.25392        3.50845       -1.14230
H          3.84475        4.20941       -0.81528
H          1.99482        3.77177        1.24108
H          4.88380        0.76086        0.42658
H          5.63975        3.26320       -1.21909
H          6.21516        1.61371       -1.45360
H          6.65623        2.50325        0.01514
