17
-1743.65
C          1.14181        0.22922        0.08605
C          2.63310       -0.04925       -0.04781
C          2.93404       -0.76069       -1.30252
C          3.17727       -1.34798       -2.32076
C          3.42444        1.22731       -0.15218
C          3.83555        1.96398        1.10022
C          4.87562        1.27384        0.26391
H          0.93279        0.78844        1.00438
H          0.56990       -0.70467        0.11834
H          0.76305        0.82235       -0.75470
H          2.96740       -0.64774        0.80793
H          3.39551       -1.86803       -3.22562
H          3.12705        1.83750       -1.00084
H          3.59411        1.53188        2.06475
H          3.80747        3.04779        1.08226
H          5.54843        1.88780       -0.32425
H          5.33196        0.37282        0.65812
