15
-1460.05
C          0.98354       -0.03362        0.00766
N          2.44072       -0.02250        0.02768
C          2.95414        1.35255       -0.01490
C          4.48795        1.36503        0.00560
C          5.01069        2.74053       -0.04894
C          5.44195        3.86023       -0.09160
H          0.62676       -1.06742        0.04847
H          0.59153        0.42196       -0.90751
H          0.57099        0.49158        0.87512
H          2.78932       -0.54088       -0.77866
H          2.57702        1.91585        0.84811
H          2.59597        1.85825       -0.92100
H          4.87699        0.79669       -0.84800
H          4.85301        0.87127        0.91417
H          5.82729        4.85353       -0.12676
