20
-1865.59
C          2.82621       -0.86886       -0.56075
C          2.79741       -0.02455        0.70598
C          3.81263        1.13816        0.68780
C          3.59556        2.08339        1.89130
N          3.85137        1.44867        3.18593
C          5.27341        0.65952        0.62042
O          5.59895       -0.19555        1.70807
H          2.01552       -1.60450       -0.53901
H          3.76727       -1.41849       -0.65567
H          2.69457       -0.24712       -1.45201
H          2.96637       -0.68027        1.56756
H          1.78669        0.38733        0.81713
H          3.62481        1.73418       -0.21589
H          2.57103        2.47250        1.87934
H          4.26424        2.94667        1.79321
H          3.12709        0.74950        3.36379
H          3.73117        2.14646        3.92276
H          5.95938        1.51334        0.64171
H          5.46762        0.11435       -0.30775
H          5.25194        0.25587        2.50931
