18
-1793.12
C          1.00148        0.00735       -0.07859
C          2.51820       -0.01937        0.06612
N          2.93983       -1.25349        0.76611
C          3.34141       -0.85245        2.13508
C          4.61955       -1.55886        2.56955
C          3.49292        0.62781        2.07227
C          3.02340        1.09625        0.91356
H          0.65294       -0.83939       -0.68034
H          0.67453        0.92790       -0.57561
H          0.49557       -0.04202        0.89367
H          2.98425        0.01681       -0.92487
H          3.76526       -1.60815        0.28525
H          2.53288       -1.10505        2.83139
H          5.46376       -1.31771        1.91413
H          4.48455       -2.64590        2.56113
H          4.89523       -1.26541        3.58820
H          3.88416        1.23527        2.87535
H          2.98648        2.13754        0.63005
