14
-1388.77
N          1.16649       -0.06136        0.41828
C          2.36616       -0.01590       -0.03036
C          3.19514        1.24185        0.00301
C          4.40910        0.82008       -0.82673
C          4.48119       -0.69825       -0.65757
N          3.08325       -1.06161       -0.53160
H          0.79934       -1.00720        0.29028
H          3.47016        1.46054        1.03945
H          2.66145        2.09082       -0.43024
H          4.23216        1.06570       -1.88153
H          5.32905        1.32257       -0.51489
H          4.95190       -1.18708       -1.51487
H          5.02316       -0.96599        0.25582
H          2.85911       -1.99449       -0.20930
