15
-1407.21
C          1.39161       -0.23253       -0.67803
O          2.78833        0.01503       -0.59912
C          3.06325        1.22514        0.10472
C          4.54665        1.40680        0.15873
C          5.27174        2.08322       -0.97424
N          5.11629        2.74590        0.31922
H          1.23658       -1.16529       -1.22815
H          0.88703        0.57706       -1.21526
H          0.96447       -0.34367        0.32393
H          2.66971        1.15311        1.12463
H          2.57616        2.06503       -0.40406
H          5.04361        0.59810        0.68134
H          4.69146        2.49138       -1.79252
H          6.26457        1.73689       -1.23158
H          5.98734        2.70545        0.85204
