14
-1356.26
C          0.57634       -1.69676       -0.00436
C          1.70282       -0.70049        0.18499
O          1.14349        0.61077        0.22869
C          2.15130        1.60319        0.38301
C          1.48786        2.95862        0.39824
O          1.95571        3.95047       -0.15608
H          0.96062       -2.72030       -0.02810
H          0.04088       -1.49909       -0.93883
H         -0.15503       -1.61177        0.80604
H          2.40980       -0.77548       -0.64863
H          2.22963       -0.90720        1.12310
H          2.86071        1.56056       -0.44956
H          2.66938        1.46537        1.33714
H          0.58878        3.03957        1.03216
