15
-1545.06
C          2.86712       -1.19121        0.51712
N          2.35029        0.08807        0.08508
C          3.11140        1.20037        0.05635
C          2.60289        2.46482       -0.09829
N          3.65497        3.34487       -0.08698
C          4.82692        2.65085        0.07144
C          4.51575        1.31042        0.16029
H          2.09210       -1.95610        0.40554
H          3.16057       -1.15875        1.57147
H          3.72591       -1.50052       -0.08766
H          1.34122        0.18219        0.15750
H          1.58964        2.82185       -0.21926
H          3.57764        4.34808       -0.18475
H          5.77707        3.16617        0.10268
H          5.23198        0.51028        0.28300
