18
-1725.7
C          0.69748        0.66557        0.43426
C          2.17493        0.64497        0.64891
C          3.05549        1.29278       -0.13262
C          4.54009        1.26507        0.06468
O          5.12490        0.78871       -1.14833
C          5.11489        2.66589        0.37374
N          6.58788        2.62498        0.40720
H          0.19583        1.03901        1.33278
H          0.33478       -0.34881        0.23550
H          0.40830        1.30353       -0.40679
H          2.52981        0.05097        1.48763
H          2.69921        1.86667       -0.98496
H          4.82164        0.56571        0.86088
H          6.03812        1.13925       -1.12720
H          4.72966        3.04347        1.32681
H          4.82586        3.37055       -0.41499
H          6.88687        2.06787        1.20923
H          6.93574        3.56850        0.58321
