15
-1393.45
C          1.01932       -0.09867        0.13821
O          2.41360        0.07817        0.34817
C          2.85951        1.41870        0.12887
C          2.49276        2.31592        1.30649
C          4.37358        1.36287       -0.03925
H          0.79079       -1.16293        0.24477
H          0.73683        0.21596       -0.87114
H          0.43759        0.45060        0.88307
H          2.42090        1.81071       -0.79618
H          2.84231        1.88487        2.25178
H          1.40743        2.42999        1.39338
H          2.92583        3.31541        1.19391
H          4.85412        0.94384        0.85245
H          4.79167        2.35652       -0.22912
H          4.64003        0.70790       -0.87642
