17
-1583.
C          1.32355        0.29791        1.56952
C          1.85758        0.62911        0.18841
C          2.74148        1.86134        0.22148
C          2.06804        3.20775        0.47445
O          2.34282        4.10997       -0.58388
N          4.02311        1.70019        0.03042
N          4.78463        2.81763        0.07220
H          0.73834       -0.62585        1.53912
H          0.67639        1.09540        1.94727
H          2.14081        0.16590        2.28630
H          1.03181        0.81051       -0.50831
H          2.43593       -0.21908       -0.19572
H          2.43712        3.62882        1.41475
H          0.98481        3.08691        0.54848
H          3.30753        4.00230       -0.73656
H          5.66224        2.63010       -0.42595
H          5.10069        2.98355        1.03401
