16
-1615.12
C          0.97570        0.03794       -0.14738
C          2.45760        0.02009        0.01579
C          3.31834       -0.72683       -0.96757
C          3.33293        0.78687       -0.95434
C          4.51619        1.56392       -0.50244
N          5.25411        1.05382        0.52218
O          4.80854        2.62405       -1.03885
H          0.55463        0.92256        0.34060
H          0.53562       -0.84990        0.31745
H          0.67590        0.05460       -1.20039
H          2.73561       -0.00455        1.06246
H          2.84281       -1.21225       -1.81340
H          4.18052       -1.26643       -0.59505
H          2.82650        1.26717       -1.78869
H          5.03149        0.18537        0.98308
H          6.05696        1.58411        0.83034
