8
-850.55
S         -0.39488       -1.16577        0.00457
C         -1.30601        0.28430       -0.02354
C         -0.43449        1.35260       -0.04075
C          0.91133        0.88667       -0.02933
N          1.09394       -0.43028       -0.00526
H         -2.38633        0.28005       -0.02592
H         -0.73661        2.39056       -0.06008
H          1.79772        1.50856       -0.03848
