17
-1754.97
C          2.12386       -0.66041        1.45220
C          2.60521       -0.16806        0.09368
C          3.00938        1.29180        0.10835
C          1.87203        2.27462        0.21717
C          4.30674        1.63646        0.00000
C          4.77607        2.96181        0.00000
C          5.17335        4.08371        0.00000
H          1.89578       -1.73000        1.40422
H          1.21465       -0.14078        1.76839
H          2.88946       -0.51171        2.22014
H          1.81698       -0.31980       -0.65452
H          3.44679       -0.79728       -0.22453
H          1.12792        2.07770       -0.56258
H          2.18691        3.31593        0.10275
H          1.38196        2.18694        1.19238
H          5.06327        0.86031       -0.08503
H          5.52686        5.08827        0.00024
