12
-1305.81
C          2.68355       -1.09903        0.40579
C          2.16818        0.11502        0.16671
C          2.92217        1.32320        0.07399
C          2.37341        2.56435       -0.17292
S          3.61628        3.74868       -0.20608
C          4.76753        2.51571        0.10867
N          4.29337        1.29565        0.23522
H          2.04702       -1.97485        0.46270
H          3.75114       -1.24025        0.54910
H          1.09180        0.18854        0.03244
H          1.33906        2.83285       -0.33127
H          5.82292        2.73671        0.19685
