12
-1275.87
N          0.99659       -0.06916        0.13574
C          2.32512        0.08086        0.07551
C          3.14756        1.18184        0.02590
O          2.71195        2.45301        0.02379
C          4.47468        0.71180       -0.02456
C          4.37578       -0.66270       -0.00998
O          3.07224       -1.05306        0.04593
H          0.41269        0.72832       -0.09233
H          0.60506       -0.97200       -0.10541
H          3.46907        3.06161        0.00821
H          5.39054        1.28165       -0.06844
H          5.09811       -1.46658       -0.03381
