14
-1437.87
O          1.01717       -0.10284        0.10029
C          2.22774       -0.01386        0.04029
C          3.25209       -1.14087        0.05664
N          4.55386       -0.36341       -0.03850
C          4.27744        0.72035       -1.11146
C          3.21103        1.19282       -0.07460
C          4.35992        0.83971        0.91988
H          3.13160       -1.79240       -0.81218
H          3.20741       -1.69584        0.99674
H          3.90180        0.33870       -2.06677
H          5.11786        1.39828       -1.30717
H          2.80938        2.20004       -0.11705
H          5.21018        1.53179        0.96644
H          4.06521        0.57318        1.94046
