15
-1445.16
O          2.83548       -0.96627       -0.43071
C          2.06133        0.17947       -0.10343
C          2.98601        1.32281        0.13205
C          3.35661        2.25141       -0.97805
N          2.45060        2.69313        0.09658
C          2.96172        3.57262        1.01682
N          2.29628        4.51201        1.59447
H          2.21338       -1.70948       -0.51631
H          1.48708       -0.03325        0.80370
H          1.36426        0.37503       -0.92525
H          3.70658        1.12006        0.91440
H          2.85812        2.16589       -1.93395
H          4.33631        2.70951       -0.98190
H          4.03082        3.43241        1.25889
H          1.33702        4.46903        1.23164
