17
-1633.17
C          1.49820       -0.14899        1.45826
C          2.92450       -0.18555        0.92732
C          3.26420        0.98082       -0.00967
N          3.14024        2.30283        0.65465
C          4.69644        0.83913       -0.57214
N          5.17003        1.98161       -1.16030
O          5.35864       -0.19140       -0.56218
H          1.28422       -1.06328        2.02178
H          0.77481       -0.07871        0.63978
H          1.34275        0.69787        2.13367
H          3.06450       -1.13070        0.38760
H          3.62397       -0.21021        1.77251
H          2.58727        0.96654       -0.87258
H          3.67847        2.27357        1.52287
H          2.17001        2.43438        0.94086
H          4.71079        2.85017       -0.90410
H          6.13640        1.99672       -1.45296
