19
-1784.87
C          0.95158       -0.11088       -0.19193
C          2.45686        0.05867       -0.02077
C          3.24320       -0.76795       -1.03192
C          2.85119        1.53377       -0.09064
C          2.66173        2.28189       -1.39518
N          3.34623        2.06706        0.99124
N          3.70891        3.36507        0.90533
H          0.40599        0.52122        0.51703
H          0.65799       -1.15088       -0.01444
H          0.62102        0.16204       -1.19928
H          2.72068       -0.30342        0.98186
H          2.97415       -0.51637       -2.06298
H          3.05213       -1.83666       -0.88840
H          4.31948       -0.59762       -0.92048
H          2.11307        1.68059       -2.12280
H          3.64083        2.52686       -1.81701
H          2.09649        3.20203       -1.22158
H          3.90064        3.72110        1.84538
H          4.59893        3.45683        0.40956
