14
-1363.69
C          1.05260        0.07183        0.01524
C          2.57380       -0.04171       -0.00705
C          3.05648       -1.24742       -0.79821
C          3.42105       -0.57625       -2.08070
N          3.45574        0.71463       -2.04391
N          3.17602        1.05723       -0.76253
H          0.73821        0.98254        0.53665
H          0.61333       -0.78380        0.53904
H          0.62884        0.09872       -0.99491
H          2.95275       -0.06452        1.01980
H          2.29449       -2.01235       -0.96796
H          3.95919       -1.70118       -0.37766
H          3.65704       -1.16606       -2.97725
H          2.66003        1.93608       -0.69725
