20
-1921.58
C          0.73018        0.20458       -0.12955
C          2.16825       -0.23529       -0.08194
C          2.39240       -1.71583       -0.21090
C          3.16357        0.66174        0.06197
C          4.64320        0.37815        0.08261
C          5.27049        0.77169        1.42482
N          6.71072        0.51940        1.42794
H          0.62500        1.29137       -0.04342
H          0.16753       -0.24910        0.69316
H          0.27219       -0.10066       -1.07609
H          1.47580       -2.27333        0.00946
H          3.15184       -2.07080        0.49262
H          2.70055       -1.96611       -1.23080
H          2.90763        1.71809        0.14354
H          5.11013        0.95461       -0.72611
H          4.85356       -0.67562       -0.13020
H          4.80457        0.20728        2.24096
H          5.10060        1.83655        1.62153
H          6.88043       -0.47760        1.29948
H          7.08898        0.75620        2.34421
