18
-1716.28
C          1.02321        0.06774       -0.11628
C          2.50787        0.01118       -0.02170
C          3.37381       -0.70462       -1.02904
N          2.79342       -1.39762       -2.17766
C          3.41952        0.81222       -0.92750
C          2.90172        1.69646       -2.01617
O          4.55723        1.38095       -0.25174
H          0.64416        0.88617        0.50444
H          0.59254       -0.86554        0.26087
H          0.65138        0.22022       -1.13213
H          2.80797       -0.07295        1.01892
H          4.23002       -1.23586       -0.61745
H          1.99265       -0.90266       -2.56471
H          2.43978       -2.31748       -1.89943
H          2.03532        1.28539       -2.54273
H          3.68689        1.86788       -2.76165
H          2.60951        2.66823       -1.60454
H          5.25380        0.72202       -0.09614
