15
-1490.57
C          1.02974       -0.28105       -0.47252
N          2.32137        0.02025        0.09161
C          2.93795        1.23676        0.00169
N          2.57078        2.45066       -0.10570
C          1.16155        2.78172       -0.09373
C          4.38394        1.18871        0.04151
C          5.58338        1.14101        0.07538
H          0.85450       -1.36077       -0.42974
H          0.97743        0.02582       -1.52152
H          0.22633        0.19914        0.09142
H          2.96310       -0.76576        0.05755
H          1.05269        3.86881       -0.02230
H          0.64795        2.35482        0.77335
H          0.66824        2.46866       -1.01861
H          6.64770        1.11722        0.10668
