15
-1546.86
C          3.13478       -1.18045        0.40085
N          2.54959        0.01389       -0.17405
C          3.14522        1.22649       -0.08775
C          2.59539        2.48625       -0.18495
C          3.64337        3.42831       -0.03613
C          4.80965        2.71736        0.13327
N          4.49644        1.38265        0.09002
H          2.47636       -2.03490        0.21526
H          3.25573       -1.07478        1.48380
H          4.10510       -1.40800       -0.05192
H          1.53065       -0.00022       -0.18531
H          1.54882        2.70713       -0.34349
H          3.55493        4.50629       -0.05810
H          5.83188        3.04163        0.27087
H          5.16069        0.62717        0.16067
