15
-1549.26
C          1.00301       -0.10806        0.20063
C          2.48429        0.07922       -0.09350
C          2.79643        0.11748       -1.58286
C          3.19047        1.15296        0.75113
C          3.94331       -0.05895        1.32399
O          4.81403       -0.26043        2.13821
O          3.27115       -0.96017        0.56281
H          0.81638       -0.19626        1.27588
H          0.61930       -1.01521       -0.27798
H          0.42302        0.74258       -0.17120
H          3.87497        0.18555       -1.76534
H          2.32162        0.98230       -2.05798
H          2.43283       -0.78669       -2.08410
H          2.57856        1.67694        1.48875
H          3.83139        1.85612        0.21453
