9
-966.71
O          1.29527       -0.34083        0.73061
C          2.24476       -0.05724        0.00423
C          3.00339        1.23938        0.09686
C          4.45010        1.01488       -0.01347
C          5.63569        0.83996       -0.10327
H          2.52783       -0.72307       -0.82954
H          2.76117        1.72497        1.04746
H          2.65809        1.88421       -0.71763
H          6.68817        0.68946       -0.17838
