18
-1750.31
C          0.89988       -0.36648        0.24583
N          2.27061       -0.15477       -0.22507
C          2.63211       -1.21186       -1.17461
C          2.43677        1.16813       -0.86216
C          2.31913        2.34892        0.11594
C          2.57111        3.63013       -0.56749
C          2.77069        4.67619       -1.12141
H          0.64518        0.33054        1.04999
H          0.79048       -1.37004        0.67312
H          0.16422       -0.25569       -0.55896
H          2.55068       -2.19799       -0.70359
H          3.67531       -1.10508       -1.49238
H          1.99544       -1.20143       -2.06687
H          1.72102        1.29140       -1.68675
H          3.43783        1.21590       -1.31328
H          3.03665        2.22468        0.93569
H          1.31938        2.38453        0.56181
H          2.94678        5.60636       -1.61160
