12
-1217.83
C          0.70033       -1.20320        0.54622
O         -0.47420       -1.44374       -0.23979
N         -1.55316       -0.56577        0.04436
C         -1.24432        0.69414        0.09866
C          0.14056        1.19730        0.06368
O          0.98132        0.71851       -0.99997
C          1.20120        0.17729        0.31127
H          1.45710       -1.93423        0.24722
H          0.46511       -1.36530        1.60349
H         -2.04806        1.43433        0.23998
H          0.30156        2.20889        0.41075
H          2.10008        0.43878        0.84562
