8
-725.93
C         -0.05592        0.88215       -0.06572
C         -0.76458       -0.44300       -0.06512
N          0.69192       -0.37016       -0.08060
H         -0.04144        1.45388       -0.98502
H         -0.02509        1.45809        0.84995
H         -1.23275       -0.77324       -0.98413
H         -1.22649       -0.78784        0.85109
H          1.07883       -0.57668        0.84246
