13
-1341.07
N          0.88218       -0.11125        0.00596
C          2.17794       -0.08654       -0.00851
C          2.97864        1.23483       -0.04015
O          4.40667        1.18613       -0.00258
C          4.96633       -0.06886        0.00572
C          4.27631       -1.21457        0.00503
N          2.91357       -1.23428       -0.00242
H          0.50842        0.84416       -0.00328
H          2.64628        1.84290        0.80959
H          2.69067        1.76923       -0.95313
H          6.04651       -0.01433        0.01770
H          4.75943       -2.18511        0.01494
H          2.41804       -2.11609        0.01966
