17
-1620.97
C          1.51728        2.68586        0.09215
C          2.71756        1.93245        0.57256
N          3.77629        1.84380       -0.16319
N          4.75588        1.12379        0.44672
C          6.00007        1.89044        0.76166
C          6.58616        1.44147       -0.58229
C          5.58158        0.28692       -0.47527
H          0.65473        2.01435        0.09212
H          1.67782        3.07835       -0.91520
H          1.31882        3.51082        0.78083
H          2.64547        1.47275        1.57541
H          6.53380        1.49800        1.63563
H          5.87543        2.97077        0.88832
H          6.39116        2.13195       -1.41092
H          7.64308        1.16537       -0.58126
H          5.09893       -0.01006       -1.41200
H          5.98433       -0.61160        0.00743
