17
-1699.15
C          1.09836        0.94943        1.42722
C          2.55904        0.81459        1.13745
C          3.15830        1.33731        0.05756
C          4.62088        1.18358       -0.26170
C          5.36461        2.48271       -0.31862
C          6.26635        2.92673        0.80297
O          6.79117        2.33750       -0.39589
H          0.63922       -0.04167        1.49250
H          0.57365        1.51687        0.65219
H          0.95251        1.46067        2.38330
H          3.14109        0.24610        1.86045
H          2.56762        1.89613       -0.66657
H          4.70122        0.69634       -1.24060
H          5.09770        0.50631        0.45773
H          4.90777        3.22393       -0.96104
H          6.30937        2.33644        1.70978
H          6.42442        3.98867        0.94591
