12
-1347.07
C          1.69978       -0.59376        1.08249
C          2.43788       -0.09150        0.08321
C          3.13712        1.23471        0.12710
C          4.58683        1.03385        0.02176
C          5.77416        0.87188       -0.06142
C          7.29183        0.66233       -0.16715
N          8.43827        0.50683       -0.24855
H          1.21439       -1.56021        0.98208
H          1.56468       -0.06212        2.01952
H          2.53436       -0.66678       -0.83603
H          2.90189        1.77449        1.05148
H          2.78070        1.85229       -0.70478
