14
-1410.14
C          1.00000        0.00000        0.00000
C          2.44400        0.00000        0.00000
C          3.63416        0.00000        0.00000
C          5.07816        0.00000        0.00000
C          5.61694        1.40336        0.00301
N          6.40101        1.82141        0.94553
O          6.75458        3.14986        0.68243
H          0.60601        1.02088        0.01167
H          0.60592       -0.52050        0.87826
H          0.60592       -0.50029       -0.88993
H          5.45792       -0.49203       -0.90171
H          5.47000       -0.54215        0.86686
H          5.33103        2.05406       -0.84332
H          7.31455        3.37349        1.44956
