16
-1556.03
O          2.51768       -1.19241       -0.68647
C          1.70735       -0.34568        0.12865
C          2.23096        1.09305        0.05826
N          3.57466        1.16750        0.64395
C          4.17384        2.47837        0.42582
C          5.51886        2.50865        1.01413
C          6.61973        2.53344        1.49469
H          2.21843       -2.10354       -0.52445
H          1.72488       -0.72186        1.15718
H          0.68013       -0.39130       -0.24642
H          1.54922        1.75565        0.60218
H          2.26452        1.40416       -0.99297
H          4.15142        0.45653        0.18694
H          3.55840        3.25663        0.89331
H          4.24069        2.70065       -0.64518
H          7.59317        2.54962        1.92678
