15
-1519.72
C          0.99045       -0.02741       -0.18072
C          2.44862        0.04750        0.13619
C          3.18719        1.16240        0.15033
C          4.63587        1.34092        0.45420
N          4.83000        2.77911        0.21454
N          3.65609        3.44615        0.00059
C          2.73122        2.54167       -0.09344
H          0.74382       -1.02831       -0.54814
H          0.70303        0.68407       -0.96000
H          0.39611        0.15983        0.71812
H          2.93263       -0.89867        0.37228
H          5.27427        0.75771       -0.21502
H          4.85188        1.09113        1.49760
H          5.38950        3.22310        0.94299
H          1.67274        2.75543       -0.29399
