14
-1480.58
C          0.39763        1.47904        0.53748
C          0.89044        0.41924       -0.41526
C          0.96864       -1.04282       -0.02205
C         -0.46220       -1.45727        0.21601
C         -1.27870       -0.40946        0.00817
C         -0.57491        0.81587       -0.39655
H          0.66941        2.50860        0.33272
H          0.34764        1.24465        1.59507
H          1.50590        0.69733       -1.25766
H          1.57027       -1.17216        0.88272
H          1.40354       -1.63630       -0.83229
H         -0.77054       -2.44641        0.51671
H         -2.35556       -0.44517        0.11991
H         -0.97010        1.36508       -1.24171
