15
-1559.6
C          1.03571       -0.02681        0.04793
C          2.55176        0.02888        0.04243
C          3.10836        1.18017        0.84873
C          4.47814        0.66870        1.22246
C          4.23892       -0.80851        1.32068
O          4.97721       -1.61108        1.86654
O          3.08443       -1.14117        0.66910
H          0.68604       -0.89673       -0.51834
H          0.60439        0.87586       -0.39492
H          0.64763       -0.14139        1.06603
H          2.91763        0.05460       -0.99122
H          2.51933        1.34152        1.76038
H          3.13518        2.12126        0.29230
H          5.21340        0.86050        0.43574
H          4.81459        1.07970        2.17684
