13
-1260.78
O          0.88816        1.06673       -0.98310
N          2.22804        0.66549       -1.06600
C          2.92117        1.35667       -0.22526
C          4.37064        1.08988       -0.14336
C          5.27920        1.52177       -1.26894
C          5.33532        2.23388        0.05090
H          0.46127        0.49833       -1.65164
H          2.48774        2.12629        0.43751
H          4.61684        0.15348        0.34713
H          4.83824        2.03924       -2.11344
H          6.09920        0.86435       -1.53292
H          6.20055        2.06491        0.68200
H          4.94672        3.24511        0.09394
