16
-1555.85
C          0.89493       -0.16826        0.10688
C          2.37924        0.00792        0.16971
C          3.09011        1.14195        0.00615
C          2.49884        2.50461       -0.23866
C          4.59653        1.12314        0.08728
O          5.13647        1.48037       -1.17579
H          0.65485       -0.98695       -0.57924
H          0.36177        0.71637       -0.24606
H          0.51064       -0.43148        1.09690
H          2.91917       -0.91906        0.36406
H          1.41300        2.53321       -0.12694
H          2.74061        2.84759       -1.24974
H          2.90738        3.22630        0.47708
H          4.98787        0.13652        0.35698
H          4.95348        1.83674        0.83664
H          4.67621        0.93516       -1.83655
