18
-1768.92
C          0.84946       -0.08151        0.31705
C          2.30871        0.14512       -0.02699
C          3.08458        1.12768        0.86928
C          4.10900        0.00113        1.06738
N          3.16762       -0.95054        0.45773
C          5.40918        0.05138        0.34647
C          5.56937        0.53763       -0.89121
H          0.43669       -0.91285       -0.26468
H          0.25995        0.81134        0.08347
H          0.70722       -0.30733        1.37986
H          2.43924        0.34848       -1.09737
H          2.56648        1.41231        1.79331
H          3.43042        2.04180        0.37754
H          4.28625       -0.21254        2.12923
H          3.57004       -1.52605       -0.28031
H          6.27215       -0.33879        0.88078
H          4.75046        0.94147       -1.47572
H          6.55194        0.54182       -1.35451
