17
-1716.27
C          2.47780       -0.99997       -0.42407
O          2.18472        0.31298        0.03484
C          3.32306        1.18699       -0.01092
C          3.53053        1.76076       -1.42488
C          2.95126        3.13723       -1.33854
C          2.68092        3.48598       -0.07900
C          3.03856        2.40299        0.88856
H          1.55975       -1.59188       -0.37641
H          3.22618       -1.46990        0.22126
H          2.82980       -0.98903       -1.45914
H          4.20707        0.64624        0.34803
H          3.02035        1.17979       -2.19785
H          4.59573        1.83262       -1.66839
H          2.78994        3.77059       -2.20054
H          2.27076        4.44056        0.22240
H          3.93362        2.70034        1.44527
H          2.22076        2.21615        1.59114
