19
-1844.87
C          1.47425       -0.10602       -0.78271
O          2.36512        0.12939        0.30595
C          3.05593        1.32374        0.15700
C          2.21149        2.56483        0.25929
C          4.40187        1.30896        0.05425
C          5.19729        0.02708        0.06147
C          5.25502        2.54120       -0.09236
H          1.09231       -1.12697       -0.68976
H          1.99271       -0.02131       -1.74411
H          0.62112        0.57879       -0.74687
H          1.34328        2.38311        0.90249
H          1.85073        2.86332       -0.72974
H          2.75224        3.40399        0.70560
H          4.57839       -0.86671        0.18276
H          5.91942        0.03871        0.88478
H          5.74715       -0.08043       -0.87952
H          4.67782        3.44875       -0.28517
H          5.94339        2.42443       -0.93668
H          5.84711        2.69929        0.81480
