14
-1357.47
N          1.17304        0.15245        0.49197
C          2.41487        0.21527        0.15458
N          3.26626        1.26920        0.32867
C          2.70744        2.59172        0.33379
C          3.95222        3.04886       -0.42831
C          4.18870        1.56751       -0.72731
H          0.80134       -0.77384        0.25639
H          2.90743       -0.65985       -0.30623
H          2.58767        3.00013        1.34000
H          1.77690        2.68986       -0.23559
H          3.76841        3.68392       -1.29874
H          4.72138        3.50777        0.20256
H          3.84604        1.24506       -1.71643
H          5.19696        1.19619       -0.53047
