19
-1847.05
C          0.90023       -0.30209        0.54902
C          1.84342       -0.65867       -0.60685
C          1.13440       -1.56455       -1.62374
O          0.68243       -2.76345       -1.00268
C          2.37204        0.63237       -1.25854
C          3.41437        0.38257       -2.31237
C          3.28785        0.75466       -3.59243
H          1.40621        0.33802        1.27957
H          0.56222       -1.19939        1.07717
H          0.01535        0.23213        0.18650
H          2.68512       -1.21599       -0.17365
H          1.79966       -1.85066       -2.44407
H          0.26323       -1.06168       -2.05613
H          1.46673       -3.22621       -0.66156
H          2.82865        1.26622       -0.48779
H          1.53385        1.20581       -1.67450
H          4.32739       -0.11883       -1.99646
H          2.40173        1.26708       -3.95507
H          4.07790        0.55556       -4.31038
