11
-1153.89
C          1.04820       -0.13062       -0.21598
O          2.46867       -0.06211       -0.20085
C          3.06150        1.16827        0.00000
C          2.40799        2.32896        0.18884
C          4.46750        1.16827        0.00000
N          5.61851        1.16827        0.00000
H          0.76402       -1.17308       -0.38647
H          0.63572        0.46874       -1.03385
H          0.63065        0.17881        0.74743
H          1.32828        2.40771        0.20149
H          2.95304        3.25819        0.34024
