13
-1304.14
C          0.95680       -0.07712       -0.01717
C          2.47789       -0.01415        0.03035
C          3.00204        1.42538        0.01366
O          2.51952        2.12050        1.17050
C          4.47908        1.44252       -0.03506
N          5.63982        1.43866       -0.05257
H          0.62331       -1.11962       -0.03260
H          0.57283        0.41498       -0.91640
H          0.50997        0.40528        0.85769
H          2.88421       -0.57274       -0.82186
H          2.81373       -0.52523        0.94175
H          2.60782        1.95124       -0.86286
H          2.97686        1.75180        1.94728
