17
-1652.85
C          2.95806       -0.04252        1.25884
O          2.72021        0.71169        0.07520
C          3.32943        2.00779        0.03476
C          2.92335        2.61588       -1.31293
C          2.83010        2.91454        1.16375
C          4.85788        1.89739        0.02949
O          5.60029        2.40336        0.86685
H          2.51271       -1.03110        1.12033
H          2.47791        0.42225        2.12348
H          4.02788       -0.17315        1.43887
H          3.23328        1.97036       -2.14342
H          3.37526        3.60154       -1.46621
H          1.83415        2.71486       -1.38517
H          3.18749        2.57599        2.14202
H          1.73563        2.91998        1.20589
H          3.18120        3.94434        1.03381
H          5.27811        1.29536       -0.79506
