16
-1610.4
C          0.78511       -1.34843        0.03713
C          2.28701       -1.38584        0.12378
O          2.88794       -2.33958        0.60652
N          2.90502       -0.26030       -0.36794
C          4.33165       -0.09912       -0.25359
C          4.74782        0.93533       -1.24914
C          5.27844        2.12523       -0.93726
H          0.44284       -0.59117       -0.67401
H          0.37415       -1.12471        1.02505
H          0.42136       -2.32265       -0.30200
H          2.34836        0.57048       -0.51728
H          4.83658       -1.04908       -0.45584
H          4.55703        0.19937        0.77575
H          4.62023        0.67428       -2.29803
H          5.44221        2.42698        0.09327
H          5.57084        2.82401       -1.71629
