16
-1550.73
C          1.06470        0.09098       -0.11401
C          2.55215        0.03701       -0.04192
C          3.34012       -0.65311       -1.12754
C          3.44617        0.84013       -0.96121
C          2.90599        1.74513       -2.02151
O          4.66391        1.32478       -0.37589
H          0.69033        0.93073        0.47833
H          0.63997       -0.83028        0.29948
H          0.69007        0.19730       -1.13539
H          2.88087       -0.10303        0.98247
H          2.80698       -1.03831       -1.98940
H          4.18588       -1.26488       -0.83552
H          2.06903        1.30121       -2.56876
H          3.68833        1.97591       -2.75268
H          2.56618        2.68635       -1.57880
H          5.00039        0.73347        0.31902
