17
-1718.83
C          0.96303       -0.20452        0.26017
C          2.39506        0.14362       -0.13745
C          2.98987       -0.90020       -1.07126
O          2.33577       -1.68097       -1.75652
C          2.52122        1.51163       -0.78565
C          1.72697        1.77503       -2.03914
C          3.31483        2.46240       -0.26129
H          0.54666        0.55340        0.93234
H          0.93551       -1.16853        0.78084
H          0.30155       -0.29195       -0.60864
H          3.00269        0.10243        0.77627
H          4.09321       -0.90491       -1.12243
H          1.98532        1.05486       -2.82143
H          1.92041        2.77559       -2.44148
H          0.65321        1.70724       -1.83996
H          3.89101        2.29605        0.64417
H          3.40533        3.44294       -0.72006
