14
-1447.67
C          1.12002        0.17510        0.04164
C          2.60314       -0.15192       -0.07619
C          2.88826       -0.86162       -1.33374
N          3.08300       -1.42356       -2.33065
C          3.42995        1.09875       -0.15266
C          3.82383        1.84148        1.10166
O          4.74396        0.98736        0.41013
H          0.91626        0.72688        0.96568
H          0.51612       -0.73900        0.05110
H          0.77446        0.79401       -0.79490
H          2.90594       -0.77012        0.77718
H          3.30332        1.67730       -1.06088
H          3.45137        1.50198        2.06049
H          3.99251        2.90962        1.03650
