14
-1402.25
O          0.81854        0.31722       -0.49015
C          2.11206       -0.04325        0.01229
C          2.92758       -0.91919       -0.88987
C          3.28824        0.53094       -0.73521
N          4.47565        0.91737       -0.04988
C          4.66954        2.15526        0.49364
O          5.69820        2.48369        1.06832
H          0.39747        0.99158        0.07089
H          2.21174       -0.21338        1.07994
H          2.48201       -1.23435       -1.82666
H          3.55685       -1.66944       -0.42659
H          3.06791        1.16729       -1.58983
H          5.25715        0.27540        0.02728
H          3.80923        2.83175        0.36829
