16
-1605.94
C         -0.12314        1.38773        0.54272
C         -1.48797        0.74435        0.26858
C         -1.59183       -0.49827       -0.26088
C         -0.35675       -1.37351       -0.50397
C          0.79263       -0.82692        0.27420
N          2.05223       -0.18354        0.05038
C          0.91966        0.64252       -0.21933
H          0.07474        1.40183        1.62038
H         -0.14905        2.42670        0.19587
H         -2.37548        1.33526        0.47456
H         -2.56554       -0.92399       -0.48449
H         -0.57452       -2.38900       -0.15493
H         -0.14388       -1.43095       -1.57727
H          0.63324       -1.02857        1.33265
H          2.49252       -0.52503       -0.80501
H          0.81991        0.87678       -1.27800
