17
-1660.28
C          1.04830       -0.07209       -0.00251
C          2.57388       -0.00336        0.00150
N          3.14360       -1.09570       -0.79175
N          3.39384       -0.72364       -2.07202
C          3.39774        0.56941       -2.07014
C          3.10316        1.21810       -0.75076
C          4.39328        1.78028       -0.17323
H          0.62719        0.77363        0.55190
H          0.69859       -0.99423        0.47536
H          0.63721       -0.04308       -1.01826
H          2.93418       -0.04473        1.03465
H          2.61109       -1.96504       -0.73779
H          3.60840        1.17691       -2.96167
H          2.35580        2.00634       -0.88094
H          5.17916        1.01890       -0.10513
H          4.22310        2.18463        0.83002
H          4.77854        2.58822       -0.80565
