17
-1670.44
C          0.99104        0.03524       -0.08277
C          2.50718       -0.00840        0.05676
C          2.98731       -1.32086        0.71695
N          3.55432       -0.84045        1.95816
C          3.51764       -1.65936        3.14348
C          3.44764        0.51222        1.97949
N          2.92365        1.11422        0.95315
H          0.63583       -0.77073       -0.73234
H          0.66922        0.99046       -0.51061
H          0.50088       -0.06912        0.89208
H          2.97550        0.12076       -0.92597
H          3.76957       -1.79261        0.11101
H          2.17678       -2.04111        0.86816
H          3.54093       -2.72381        2.88843
H          2.60742       -1.46570        3.72080
H          4.38362       -1.44830        3.77847
H          3.81435        1.03011        2.87946
