17
-1648.69
O          0.82275        0.17771        0.06410
C          2.21909       -0.08722        0.20007
C          2.99839        1.22263        0.41378
C          2.47093        1.99431        1.63717
O          1.15049        2.48571        1.41892
C          4.47498        0.93372        0.55861
C          5.41361        1.39947       -0.27586
H          0.39968       -0.66863       -0.17195
H          2.56062       -0.59177       -0.71085
H          2.35284       -0.77062        1.04592
H          2.81716        1.85346       -0.46739
H          3.10505        2.86023        1.85378
H          2.45517        1.35984        2.53119
H          0.66434        1.77043        0.95448
H          4.78153        0.31422        1.39931
H          5.16430        2.02811       -1.12488
H          6.46295        1.16417       -0.12000
