16
-1584.6
C          1.01226       -0.28770       -0.00952
C          2.46974       -0.32362       -0.31211
N          2.94545       -0.19155       -1.68876
C          3.17924        0.92607       -0.77170
C          4.57535        1.21390       -0.31745
C          4.63707        1.80717        1.06669
O          3.66178        2.06596        1.76426
H          0.84993        0.09670        1.00286
H          0.59071       -1.29655       -0.06168
H          0.45710        0.34954       -0.70600
H          3.00649       -1.02276        0.31777
H          2.17153        0.01350       -2.32441
H          2.59781        1.82682       -0.93775
H          5.04123        1.92944       -1.00356
H          5.18953        0.30676       -0.31287
H          5.65786        2.01485        1.43678
