14
-1446.88
C          5.39435       -1.74845       -0.51709
C          4.57034       -0.94516       -0.17805
C          3.55383        0.02938        0.23701
C          4.27140        1.34432        0.24454
C          4.39842        2.17051       -1.01225
C          3.48802        2.62524        0.09403
H          6.12851       -2.46041       -0.81967
H          3.17763       -0.19964        1.23895
H          2.70670        0.02848       -0.45686
H          5.09579        1.36112        0.95152
H          3.94637        1.79933       -1.92512
H          5.32469        2.71228       -1.16714
H          3.79666        3.48048        0.68490
H          2.41875        2.56833       -0.07561
