15
-1517.76
O          1.20133        0.19065        0.40681
C          2.56658        0.00769        0.04970
C          2.80757       -1.43923       -0.40680
C          2.51971       -1.43971       -1.91849
C          2.87909       -0.05402       -2.35691
O          1.87294        0.94263       -2.14744
C          2.90382        0.83212       -1.15630
H          0.73807        0.47275       -0.40536
H          3.18737        0.25826        0.91500
H          2.19055       -2.17187        0.12220
H          3.86404       -1.69364       -0.25352
H          3.11981       -2.19797       -2.43064
H          1.46191       -1.64353       -2.11376
H          3.60035        0.05151       -3.14877
H          3.64221        1.60611       -1.04131
