17
-1786.9
C          0.93538        0.08008        0.01226
C          2.43492        0.05944       -0.00555
C          3.14720        1.19888        0.00896
C          4.58701        1.20022       -0.02809
C          5.29121        0.06146       -0.01236
C          4.64259       -1.29085        0.04012
C          3.10333       -1.29443       -0.05360
H          0.52306       -0.93426        0.00962
H          0.54653        0.59689       -0.87111
H          0.56653        0.58414        0.91160
H          2.65367        2.16678        0.03818
H          5.09000        2.16259       -0.06189
H          6.37636        0.09839       -0.03069
H          5.04800       -1.90795       -0.77094
H          4.94470       -1.77906        0.97531
H          2.71093       -1.91683        0.76074
H          2.81138       -1.79035       -0.98831
