19
-1853.29
C          0.78373       -0.03968       -0.06883
C          2.29215       -0.23704        0.10332
C          2.56623       -0.98341        1.41303
O          2.75964       -1.08302       -0.95369
C          3.08139        1.09583        0.09610
C          2.89846        1.93579       -1.14461
C          3.88154        2.21298       -2.01185
H          0.54106        0.37140       -1.05408
H          0.37572        0.62445        0.69972
H          0.25858       -1.00008       -0.00831
H          2.23119       -0.40930        2.28270
H          3.63627       -1.19240        1.52561
H          2.06091       -1.95598        1.42289
H          2.70411       -0.57277       -1.78125
H          4.14968        0.87407        0.22108
H          2.78281        1.70480        0.95872
H          1.91094        2.35739       -1.31963
H          4.88822        1.83187       -1.87512
H          3.69759        2.83797       -2.88075
