17
-1619.14
N          2.28414       -0.41266       -1.43281
C          2.42123        0.04449       -0.05343
C          3.20150        1.34815       -0.00534
C          2.49234        2.62779       -0.52916
C          3.18939        3.39300        0.61428
C          3.25122        2.05413        1.37685
H          1.76844       -1.29210       -1.44548
H          3.20591       -0.62176       -1.81568
H          2.93779       -0.72399        0.53126
H          1.42343        0.17219        0.37906
H          4.21049        1.23076       -0.43064
H          1.39998        2.61111       -0.44202
H          2.76397        2.94067       -1.54057
H          4.17359        3.79233        0.34249
H          2.60097        4.18359        1.08639
H          4.15825        1.88563        1.96323
H          2.37739        1.87292        2.01339
