17
-1626.31
C          0.98884        0.02822        0.06211
C          2.48721       -0.13511        0.04837
C          2.95119       -1.55763        0.19478
C          3.28943        0.93963       -0.09183
C          4.78325        0.99368       -0.11568
N          5.22043        1.54611       -1.38989
H          0.68249        1.07435       -0.04251
H          0.57621       -0.34576        1.00458
H          0.53906       -0.53355       -0.76279
H          2.51854       -2.17664       -0.59820
H          2.62770       -1.96004        1.16039
H          4.03511       -1.67288        0.13729
H          2.82206        1.92020       -0.19077
H          5.25253        0.02027        0.03796
H          5.12509        1.64687        0.69351
H          4.93313        0.90965       -2.13321
H          6.23841        1.56132       -1.41093
