15
-1607.99
C          1.00014       -0.05472        0.00422
C          2.52000        0.00000        0.00000
C          3.00202        1.36117        0.00000
C          3.39930        2.48307        0.00000
C          3.85595        3.77260        0.00000
C          4.25323        4.89450        0.00000
C          4.73525        6.25567        0.00000
H          0.65777       -1.09338        0.00275
H          0.58537        0.44152       -0.88002
H          0.58882        0.43952        0.89018
H          2.89540       -0.53271       -0.88091
H          2.89930       -0.53413        0.87827
H          3.94158        6.95478       -0.28090
H          5.55872        6.38212       -0.70957
H          5.10009        6.54453        0.99047
