20
-1867.1
C          2.76215       -0.95120       -1.01567
C          2.45062        0.07597        0.06664
C          3.07278        1.47387       -0.15577
C          2.52581        2.14027       -1.42843
N          2.69869        2.35052        0.98163
C          4.62100        1.41120       -0.20793
O          5.16569        2.73012       -0.13874
H          2.27895       -1.90310       -0.77230
H          3.83644       -1.13811       -1.09479
H          2.38920       -0.63345       -1.99288
H          2.79471       -0.33020        1.02744
H          1.35896        0.16742        0.14670
H          2.85683        1.61372       -2.33015
H          2.86749        3.17810       -1.52091
H          1.42943        2.15348       -1.43225
H          2.96575        1.90058        1.85857
H          1.68223        2.43929        1.01802
H          4.98064        0.94736       -1.13163
H          5.02105        0.84560        0.64095
H          4.52081        3.22667        0.40842
