15
-1548.36
O          1.11698       -0.33234        0.10315
C          2.36430        0.23761       -0.29633
C          2.79291       -0.39984       -1.62647
C          4.15490       -0.00917       -2.02808
C          5.26322        0.31283       -2.36011
C          2.15276        1.72393       -0.39021
C          2.81242        2.63237        0.34105
H          0.84043        0.14232        0.90625
H          3.09656       -0.00591        0.48338
H          2.07733       -0.14182       -2.41750
H          2.74148       -1.49200       -1.53184
H          6.24456        0.60359       -2.65719
H          1.40995        2.06371       -1.10933
H          3.56850        2.34480        1.06539
H          2.61422        3.69297        0.21828
