19
-1781.77
C          0.96849       -0.07083       -0.05894
C          2.49860       -0.02403        0.02118
C          2.97182       -0.70251        1.31204
C          3.10679       -0.73976       -1.19071
C          2.91769        1.43903       -0.04646
N          3.52362        2.03232        0.93435
N          3.79734        3.33072        0.67734
H          0.60199        0.40533       -0.97592
H          0.51344        0.46081        0.78487
H          0.60058       -1.10266       -0.04619
H          2.55172       -0.21278        2.19811
H          4.06350       -0.66651        1.40358
H          2.66933       -1.75532        1.33948
H          2.78050       -0.28068       -2.13127
H          2.81754       -1.79614       -1.21547
H          4.20165       -0.68926       -1.16932
H          2.66802        1.97830       -0.98128
H          4.44074        3.68272        1.39157
H          2.95670        3.90386        0.78777
