14
-1422.33
C          1.63895       -0.92266        0.22859
N          2.95751       -0.34115        0.20367
C          3.13790        0.99161       -0.09590
O          2.21051        1.76580       -0.30657
C          4.57765        1.42852       -0.09960
C          4.81573        2.60780       -0.99340
O          5.81175        2.70872       -1.70679
H          1.72454       -1.97630        0.50341
H          1.18583       -0.82941       -0.76214
H          1.02323       -0.39306        0.96057
H          3.75858       -0.95171        0.30613
H          5.22322        0.60707       -0.42662
H          4.84990        1.71312        0.92161
H          4.10071        3.44398       -0.90524
