17
-1645.94
C          1.01283        0.12828        0.13015
C          2.50035       -0.10012       -0.04517
O          3.26726        0.94845        0.59973
C          4.06531       -0.03135        1.30274
C          3.14818       -1.17201        0.85129
C          3.79705       -2.32131        0.11264
O          4.49425       -3.14626        1.03841
H          0.44541       -0.72890       -0.24652
H          0.69091        1.01485       -0.42549
H          0.74826        0.27468        1.18271
H          2.77697       -0.16691       -1.10492
H          5.09035       -0.05135        0.92042
H          4.07777        0.15496        2.38027
H          2.48636       -1.52149        1.65478
H          4.49809       -1.98531       -0.65856
H          3.03521       -2.94016       -0.37128
H          5.32234       -2.69610        1.27797
