18
-1762.65
C          0.81856        0.31318        0.23344
C          2.29414        0.07341        0.13172
C          2.81653       -1.16358        0.10033
C          3.23606        1.22974        0.03743
C          2.68439        2.67526        0.10013
N          3.86263        3.04832        0.92325
C          3.95707        1.62667        1.34717
H          0.47010        0.92662       -0.60370
H          0.57703        0.82400        1.17124
H          0.25017       -0.62284        0.21321
H          2.18609       -2.04642        0.15709
H          3.88618       -1.33307        0.01712
H          3.93275        1.10705       -0.80718
H          1.73971        2.82294        0.63414
H          2.62080        3.19447       -0.86095
H          4.66141        3.34878        0.36312
H          4.97966        1.25274        1.45690
H          3.40748        1.41751        2.27289
