16
-1555.34
C          1.05828        0.34466        1.12306
N          2.50002        0.57317        1.14431
C          2.96070        1.38568        0.00000
C          2.43894        2.84421        0.09950
O          2.57203        3.35649        1.43219
C          4.40470        1.38568        0.00000
C          5.59486        1.38568        0.00000
H          0.79193       -0.34554        1.92946
H          0.73237       -0.10228        0.17795
H          0.49999        1.26835        1.29732
H          2.97070       -0.33222        1.09230
H          2.61229        0.94692       -0.94317
H          1.37578        2.89031       -0.15956
H          2.97800        3.51628       -0.57650
H          2.62075        2.55951        2.00095
H          6.66043        1.39266        0.01013
