14
-1534.34
C          2.67617       -1.18129        0.29577
C          2.23707        0.07602        0.14758
N          3.01129        1.23701        0.08593
C          2.50870        2.51720       -0.06850
C          3.54753        3.42071       -0.08867
C          4.73977        2.68366        0.05779
C          4.38718        1.35591        0.16225
H          1.97126       -2.00667        0.32976
H          3.72810       -1.43023        0.38662
H          1.16738        0.24822        0.06294
H          1.44209        2.67697       -0.15175
H          3.45152        4.49329       -0.19733
H          5.74928        3.07295        0.08491
H          5.01031        0.48186        0.28553
