12
-1267.33
C          0.98824       -0.01149        0.02909
C          2.47377        0.03311        0.09186
C          3.24848        1.11624        0.00720
C          4.63169        0.61156        0.02244
O          5.63433        1.29736       -0.07290
O          4.57467       -0.76134        0.10863
N          3.22104       -1.11047        0.24221
H          0.55915        0.99321       -0.04249
H          0.58103       -0.48811        0.92631
H          0.65990       -0.58237       -0.84538
H          2.98528        2.14948       -0.11378
H          2.93706       -1.88939       -0.35131
