17
-1703.05
C          0.64265       -0.13582        0.38273
C          2.13291       -0.03651        0.36396
C          2.80851        1.06171       -0.01081
C          4.30335        1.17258       -0.02107
O          4.66291        2.21834        0.88094
C          5.99330        2.45356        1.07514
C          7.04839        1.84651        0.51957
H          0.31886       -0.98721       -0.22424
H          0.16177        0.76543       -0.01124
H          0.29248       -0.29151        1.40810
H          2.67600       -0.91973        0.69285
H          2.26778        1.95073       -0.32618
H          4.63430        1.42413       -1.03561
H          4.76387        0.22735        0.29050
H          6.11008        3.25657        1.79612
H          6.96148        1.04537       -0.20157
H          8.05389        2.15606        0.79197
