11
-1185.2
O          0.94377        0.01872       -0.00614
C          2.28095       -0.01561       -0.00020
C          3.08973        1.09193        0.00413
N          4.38755        0.64109        0.00963
C          4.39555       -0.73200        0.00876
C          3.08732       -1.16683        0.00265
H          0.63521        0.94058       -0.00691
H          2.87490        2.15091        0.00387
H          5.21133        1.22882        0.01368
H          5.32830       -1.27992        0.01256
H          2.75460       -2.19584        0.00049
