15
-1485.91
C          0.98726       -0.08175       -0.18012
C          2.47469        0.03584        0.00407
C          3.15564       -1.27688        0.20741
O          2.57145       -2.35063        0.10556
C          3.18623        1.18593        0.01849
N          2.59798        2.42174       -0.04957
N          4.55319        1.25312        0.09418
H          0.50720        0.86166       -0.45249
H          0.51835       -0.44211        0.74159
H          0.75602       -0.78820       -0.98533
H          4.22267       -1.24302        0.47344
H          1.61955        2.42591        0.22465
H          3.11463        3.09510        0.51065
H          5.02522        0.48575       -0.37543
H          4.87539        2.12984       -0.31092
