13
-1400.16
C          0.96607        0.02498       -0.00616
C          2.44394        0.05827       -0.00290
C          3.26852        1.10855        0.00163
C          4.59153        0.50490        0.00270
N          4.59859       -0.78378       -0.00024
C          3.28562       -1.15236       -0.00350
N          2.94519       -2.38307       -0.00738
H          0.54310        1.03454        0.00411
H          0.59163       -0.50502        0.87549
H          0.59562       -0.48593       -0.90029
H          3.04862        2.15939        0.00361
H          5.48564        1.14439        0.00546
H          1.92947       -2.47684       -0.00978
