12
-1294.93
C          1.00000        0.00000        0.00000
C          2.19016        0.00000        0.00000
C          3.63416        0.00000        0.00000
C          4.19643        1.42161       -0.00633
C          5.66820        1.41520       -0.00688
C          6.86899        1.41405       -0.00741
H         -0.06591       -0.00220        0.00001
H          4.00587       -0.54790       -0.87501
H          4.00591       -0.54004        0.87986
H          3.83480        1.97246        0.87105
H          3.83420        1.96484       -0.88828
H          7.93593        1.41533       -0.00792
