16
-1464.45
C          1.16588       -0.49420       -0.08366
C          2.67772       -0.33463       -0.14402
C          3.09195        1.12266        0.05971
N          4.55008        1.23249        0.00271
C          4.97824        2.61388        0.17775
H          0.88909       -1.54332       -0.23030
H          0.67686        0.09830       -0.86403
H          0.77569       -0.17266        0.88762
H          3.03468       -0.69659       -1.11612
H          3.13422       -0.96746        0.62548
H          2.72900        1.47104        1.03408
H          2.63339        1.74667       -0.71686
H          4.88298        0.88814       -0.89764
H          4.66460        3.00534        1.15081
H          4.58345        3.26003       -0.61304
H          6.07083        2.66418        0.13953
