16
-1585.65
C          0.86961        0.26432        0.35552
C          2.36083        0.04648        0.29501
O          2.80687       -1.10472        0.41440
C          3.27746        1.28202        0.05932
C          2.70421        2.70347       -0.14301
C          3.88831        3.15129        0.73233
N          3.87639        1.79851        1.33166
H          0.62544        0.89942        1.21021
H          0.36090       -0.69625        0.47778
H          0.52726        0.72349       -0.57488
H          4.04505        1.04770       -0.69408
H          1.72567        2.89379        0.31137
H          2.70213        3.07957       -1.16919
H          4.80298        3.37968        0.17266
H          3.68119        3.96624        1.43052
H          4.79089        1.40428        1.55140
