15
-1442.33
O          2.32908       -0.79971        1.28022
C          2.15302       -0.20340       -0.00041
C          2.70798        1.20844        0.01758
C          4.20863        1.15079        0.04926
N          4.90663        1.57908       -0.95306
N          6.26570        1.42001       -0.70368
C          6.96612        1.91698       -1.66633
H          1.98058       -1.70682        1.22322
H          1.08024       -0.18135       -0.21465
H          2.65363       -0.82655       -0.74901
H          2.37819        1.74820        0.91110
H          2.38606        1.75464       -0.87454
H          4.67819        0.72365        0.95434
H          8.06522        1.87268       -1.62295
H          6.51829        2.39717       -2.55261
