15
-1532.25
C          1.87198       -0.71128        0.34105
C          3.35739       -0.53595        0.61088
C          3.94309        0.61418       -0.20433
C          5.41953        0.79742        0.05718
O          6.10049        0.12150        0.81773
C          6.10170        1.91663       -0.69231
O          5.48797        2.62378       -1.47436
H          1.47323       -1.53670        0.93880
H          1.68921       -0.93677       -0.71432
H          1.31646        0.19546        0.60045
H          3.88160       -1.46896        0.37161
H          3.51188       -0.35209        1.68090
H          3.43132        1.54838        0.05276
H          3.80610        0.41833       -1.27372
H          7.17407        2.02537       -0.46710
