17
-1640.73
C          1.99841       -0.48057       -1.33964
O          2.22720        0.09159       -0.06040
C          3.05687        1.27304       -0.03966
C          2.38582        2.59517       -0.48040
C          3.16541        3.30312        0.64165
C          3.25845        1.93879        1.36007
O          4.49495        1.66685        2.05198
H          1.36635       -1.36393       -1.21813
H          2.94737       -0.78286       -1.79186
H          1.48593        0.23543       -1.98838
H          4.01278        1.08677       -0.54799
H          1.29814        2.61059       -0.34425
H          2.62113        2.92942       -1.49435
H          4.13244        3.70869        0.32328
H          2.61230        4.08133        1.17408
H          2.41159        1.76162        2.03560
H          5.19606        1.75352        1.38506
