17
-1646.73
C          3.62246       -1.12906        0.84982
O          2.66123       -0.20371        0.35394
C          3.10156        1.05150        0.03762
C          4.32904        1.57618        0.17425
C          4.75959        2.96260       -0.21279
C          3.72655        3.83870       -0.91216
O          5.18382        3.61922        0.97787
H          3.11037       -2.07700        1.04012
H          4.05176       -0.78122        1.79493
H          4.40617       -1.31173        0.10757
H          2.26203        1.60799       -0.36606
H          5.13269        0.97673        0.59330
H          5.63682        2.87734       -0.86400
H          2.85958        4.02829       -0.26924
H          3.38286        3.38626       -1.84779
H          4.15883        4.81871       -1.14283
H          4.41767        3.64367        1.57700
