15
-1495.04
C          1.08677        0.11611        0.25088
N          2.50259        0.19894       -0.07166
C          3.21038       -1.07754       -0.17271
C          3.63476       -1.54888        1.15361
C          3.99150       -1.92077        2.24039
C          3.22057        1.35517        0.09546
N          2.79693        2.53695        0.36836
H          0.53273        0.94050       -0.21020
H          0.93720        0.15418        1.33464
H          0.63995       -0.81039       -0.12573
H          4.08311       -0.96869       -0.82769
H          2.57159       -1.83103       -0.64909
H          4.31257       -2.23545        3.20518
H          4.30817        1.21369       -0.03635
H          1.78193        2.53509        0.46121
