18
-1751.2
C          1.17928       -0.67110       -0.06044
C          2.69582       -0.56545       -0.07517
C          3.15499        0.88588       -0.20781
C          4.68210        0.98609       -0.21064
C          5.13694        2.40960       -0.35752
C          5.86935        3.06154        0.55419
H          0.87226       -1.71842        0.03004
H          0.74789       -0.26956       -0.98360
H          0.75529       -0.11921        0.78533
H          3.08869       -1.15828       -0.90910
H          3.09426       -1.00036        0.84856
H          2.74714        1.47788        0.62115
H          2.75292        1.31386       -1.13500
H          5.09122        0.40358       -1.04548
H          5.08214        0.54512        0.71109
H          4.85339        2.92538       -1.27282
H          6.18168        2.58903        1.48037
H          6.17331        4.09055        0.38928
