21
-1926.68
C          1.04107       -0.09590       -0.02217
N          2.49587       -0.01952       -0.00009
C          2.94914        1.37220       -0.00985
C          4.47856        1.41465       -0.00024
C          4.99187        2.85601       -0.00189
C          6.51806        2.89621        0.00720
N          6.98629        4.27781        0.00984
H          0.73178       -1.14498        0.00160
H          0.62993        0.35631       -0.93014
H          0.60524        0.39602        0.85290
H          2.87084       -0.50717       -0.81344
H          2.56502        1.89659        0.87309
H          2.57347        1.88736       -0.90232
H          4.87100        0.88686       -0.87879
H          4.85817        0.89223        0.88708
H          4.60112        3.38444        0.87707
H          4.61012        3.37836       -0.88852
H          6.91760        2.38003       -0.87248
H          6.90383        2.38753        0.89685
H          6.67100        4.75020       -0.83684
H          8.00547        4.28868       -0.02016
