15
-1515.24
C          1.82267       -0.45935       -1.29111
O          2.08239        0.15993       -0.03802
C          3.02121        1.25702       -0.06040
C          2.47468        2.61708       -0.57929
C          3.17898        3.25743        0.62850
O          3.53185        4.38618        0.89717
C          3.31857        1.89448        1.32713
H          1.10655       -1.27012       -1.13661
H          2.74655       -0.87523       -1.70309
H          1.39421        0.26530       -1.98902
H          3.95051        0.95949       -0.56655
H          1.38693        2.72631       -0.55218
H          2.86248        2.93336       -1.54985
H          4.31359        1.69151        1.72813
H          2.55868        1.72215        2.09420
