15
-1470.05
C          0.99964       -0.05397        0.00268
C          2.52000        0.00000        0.00000
C          3.00202        1.36117        0.00000
C          3.39930        2.48307        0.00000
C          3.88132        3.84424        0.00000
N          2.76582        4.77226       -0.11172
H          0.65769       -1.09285        0.00219
H          0.58559        0.44181       -0.88104
H          0.58880        0.43990        0.88895
H          2.89582       -0.53284       -0.88068
H          2.89900       -0.53403        0.87859
H          4.57195        4.00555       -0.83446
H          4.43054        4.05589        0.92304
H          2.26333        4.57695       -0.97607
H          3.12839        5.71893       -0.19583
