18
-1775.71
C          0.98359        0.74778       -1.57010
C          2.46553        0.67009       -1.38890
C          3.11847        1.21199       -0.34449
C          4.59943        1.19765       -0.04855
N          5.37687        0.41895       -1.00441
C          5.22938        2.56439        0.03916
C          4.67414        3.76098       -0.20575
H          0.75102        1.18619       -2.54608
H          0.50163        1.36029       -0.80049
H          0.54920       -0.25632       -1.53171
H          3.00427        0.14282       -2.16976
H          2.52761        1.72179        0.41682
H          4.72110        0.72444        0.93408
H          5.25075        0.83274       -1.92572
H          4.98753       -0.51966       -1.04810
H          6.27527        2.55316        0.34647
H          3.64302        3.87094       -0.52349
H          5.25932        4.66947       -0.09917
