15
-1481.16
N          2.83778       -0.55053        1.26374
C          2.38585        0.08523        0.02959
C          2.82972        1.53255       -0.05590
C          1.93387        2.53211       -0.09145
N          4.16930        1.85469       -0.11265
C          5.24500        1.00895       -0.10731
O          6.39952        1.41794       -0.16733
H          2.44138       -1.48717        1.32085
H          2.45846       -0.03444        2.05709
H          1.29260        0.01200       -0.01923
H          2.77308       -0.46928       -0.83278
H          0.86633        2.33701       -0.05375
H          2.23208        3.57376       -0.15748
H          4.43630        2.83059       -0.15632
H          5.00782       -0.06331       -0.06647
