14
-1444.57
O          1.02807        0.06918       -0.04105
C          2.22843        0.03700        0.01905
C          3.47350        1.05964        0.06778
C          4.07491        0.03302       -0.96562
C          3.46151       -1.03791        0.03750
N          4.25180       -0.78572        1.27532
C          4.22460        0.69416        1.33779
H          3.32300        2.08861       -0.24426
H          5.16494        0.03203       -1.07588
H          3.63111        0.05186       -1.96908
H          3.31254       -2.05837       -0.30233
H          3.81579       -1.16403        2.11763
H          5.24274        1.09550        1.34376
H          3.69502        1.04069        2.23122
