18
-1710.52
C          1.03985        0.50681        0.95111
O          2.45810        0.53850        0.87118
C          2.90642        1.50970       -0.06974
C          4.40009        1.46164       -0.08127
C          5.19548        2.51823        0.15529
C          6.68709        2.46506        0.15798
N          7.20136        3.40506       -0.82631
H          0.75368       -0.24050        1.69585
H          0.60899        0.22170       -0.01350
H          0.65017        1.47978        1.26543
H          2.53729        2.50150        0.21478
H          2.52781        1.25921       -1.06692
H          4.83820        0.48955       -0.29417
H          4.75334        3.48656        0.38111
H          7.05807        1.45867       -0.06372
H          7.05431        2.74256        1.15130
H          6.91180        3.09535       -1.75319
H          8.21883        3.36092       -0.82212
