17
-1775.28
C         -1.08965       -0.00612       -1.02391
C         -0.61618        1.04401        0.03423
C         -1.03728       -0.03386        1.08647
C         -0.55567       -1.06088        0.00497
C          0.93470       -1.18638       -0.03361
C          1.62571       -0.03387       -0.03563
C          0.90374        1.29402       -0.00036
H         -2.17531       -0.03663       -1.18010
H         -0.60282        0.02839       -2.00326
H         -1.19596        1.97169        0.06078
H         -0.50244       -0.02485        2.04102
H         -2.11386       -0.06922        1.29545
H         -1.06633       -2.02737        0.00493
H          1.40940       -2.16019       -0.05813
H          2.71096       -0.03465       -0.06251
H          1.16857        1.88034       -0.88667
H          1.21264        1.85718        0.88670
