15
-1505.37
C         -1.24154       -0.00116        0.98637
C         -0.60217       -1.00253        0.00375
C          0.88824       -1.21326        0.27234
O          1.64689       -0.00059        0.11703
C          0.88842        1.21171        0.27618
C         -0.60116        1.00277        0.00782
O         -0.79897        0.00116       -1.06461
H         -0.86518       -0.00320        2.01186
H         -2.33540       -0.00134        0.99064
H         -1.18241       -1.91395       -0.16573
H          1.05145       -1.59480        1.28605
H          1.30243       -1.94520       -0.42854
H          1.30325        1.94517       -0.42259
H          1.05226        1.58987        1.29056
H         -1.18166        1.91431       -0.15970
