12
-1214.72
C          3.02790       -1.47513        1.06156
C          2.45154       -0.58996        0.24055
O          3.00115        0.49627       -0.37752
C          4.38452        0.73940       -0.14608
C          4.74413        1.98231       -0.91958
O          5.78551        2.10978       -1.56035
H          2.44163       -2.29315        1.47092
H          4.07096       -1.43067        1.35115
H          1.40287       -0.66475       -0.03093
H          4.99543       -0.09303       -0.50956
H          4.57105        0.94010        0.91369
H          4.05165        2.83359       -0.80033
