16
-1595.71
C          0.94754       -0.07748        0.07480
C          2.46108       -0.13379        0.03764
O          2.96166        1.20207        0.01100
C          4.38977        1.23191       -0.03080
C          4.84329        2.68440       -0.05284
C          6.30491        2.76826       -0.09916
N          7.46355        2.82230       -0.13617
H          0.52037       -1.08415        0.09667
H          0.55963        0.45213       -0.80141
H          0.60336        0.47172        0.95742
H          2.79281       -0.67007       -0.85817
H          2.83752       -0.65116        0.92698
H          4.73872        0.70706       -0.92930
H          4.79134        0.71807        0.85134
H          4.45939        3.20499        0.83220
H          4.40457        3.19597       -0.91716
