12
-1264.82
N          1.38686        0.04910        1.08374
C          2.56544       -0.21357        0.47792
O          2.79173       -1.25253       -0.11892
O          3.40548        0.82557        0.64859
C          4.69800        0.68867        0.04781
C          4.95892        1.86356       -0.79508
C          5.16711        2.81825       -1.49243
H          1.24315        0.93462        1.54405
H          0.64146       -0.62770        1.02007
H          4.80970       -0.22600       -0.54395
H          5.43126        0.64693        0.86067
H          5.34668        3.66449       -2.11624
