18
-1802.17
C          0.93373       -0.56571        0.61104
C          2.31917       -0.42456       -0.02614
C          2.71369       -1.74047       -0.69790
C          2.31882        0.76447       -1.00939
C          3.65952        1.05690       -1.68853
C          4.69702        1.45685       -0.72873
N          5.51818        1.77230        0.02697
H          0.65033        0.35373        1.13418
H          0.92234       -1.38116        1.34206
H          0.16842       -0.77681       -0.14372
H          3.03408       -0.22440        0.78129
H          2.07443       -1.95301       -1.56136
H          2.62308       -2.57713        0.00339
H          3.75307       -1.71746       -1.03890
H          1.98922        1.66543       -0.47444
H          1.57207        0.58086       -1.79305
H          3.51299        1.87192       -2.40762
H          3.99590        0.19319       -2.27093
