13
-1416.95
O          1.17467       -0.04434        0.51973
C          2.33940       -0.02041        0.14575
C          3.14733        1.24344        0.00328
C          4.36629        0.82977       -0.81419
C          4.44179       -0.66626       -0.65228
O          5.42154       -1.33474       -0.95460
C          3.15204       -1.24658       -0.14962
H          3.44386        1.58069        1.00157
H          2.57153        2.02404       -0.50014
H          4.21981        1.05763       -1.87436
H          5.27680        1.31096       -0.44967
H          2.67394       -1.83588       -0.93403
H          3.32615       -1.81194        0.76763
