13
-1329.06
N          1.24915        0.15158        0.29884
C          2.38983       -0.06407       -0.25027
O          2.60753       -1.24795       -0.89495
C          3.98928       -1.32228       -1.25050
C          4.54406        0.01491       -0.91884
C          3.98103        1.24929       -1.54817
N          3.48294        0.77826       -0.25075
H          1.30227        1.07601        0.73566
H          4.46266       -2.11885       -0.66855
H          4.07663       -1.54823       -2.31726
H          5.48753        0.02571       -0.39719
H          4.53887        2.17187       -1.47268
H          3.26589        1.17678       -2.35679
