16
-1558.73
C          4.32994       -0.78449       -0.99498
O          5.52441       -0.05194       -0.75168
N          5.17753        1.27435       -0.45646
C          6.23592        2.01996       -0.28987
C          7.64447        1.47395       -0.40358
C          5.99506        3.45787        0.03034
C          6.92018        4.40538        0.22021
H          4.60139       -1.80391       -1.27956
H          3.76494       -0.32916       -1.81503
H          3.71773       -0.82058       -0.08920
H          7.76930        0.98999       -1.37657
H          7.80552        0.73446        0.38748
H          8.41406        2.23910       -0.31456
H          4.94208        3.72103        0.10629
H          7.98664        4.22980        0.16083
H          6.61066        5.42167        0.44668
