17
-1720.52
C          0.67446       -0.25676       -0.20120
C          2.13490        0.01411       -0.01704
C          2.74984        1.21188        0.05601
C          2.04104        2.54161        0.02039
C          4.25060        1.29508        0.23163
C          4.88172        1.89348       -1.00344
O          5.46062        2.97648       -1.01292
H          0.54008       -1.00463       -0.98962
H          0.10077        0.62509       -0.49349
H          0.25076       -0.65895        0.72397
H          2.73917       -0.89030        0.05581
H          0.96168        2.45686        0.16648
H          2.21605        3.04022       -0.93823
H          2.41317        3.19108        0.82014
H          4.70471        0.31026        0.38740
H          4.49966        1.91041        1.10289
H          4.80389        1.28675       -1.92211
