13
-1450.99
C          1.00158       -0.21475        0.00282
C          2.48758       -0.03948        0.00312
C          3.13902        1.13799        0.00000
C          2.43602        2.35562        0.00000
C          1.84094        3.38633        0.00000
C          4.54502        1.13799        0.00000
C          5.73518        1.13799        0.00000
H          0.75516       -1.28170       -0.02306
H          0.54790        0.24831       -0.87936
H          0.55508        0.20455        0.90999
H          3.06491       -0.96215        0.00597
H          1.31124        4.31015       -0.00000
H          6.80012        1.14150       -0.00000
