17
-1680.8
C          2.57859        0.06671       -2.38529
O          3.48868        0.12878       -1.28673
C          4.29359        1.22902       -1.29588
O          4.28039        2.10056       -2.15515
C          5.22491        1.19937       -0.09915
C          6.46243        0.37782       -0.43693
C          5.60064        2.61714        0.32257
H          1.89691        0.92286       -2.36669
H          1.98769       -0.84796       -2.28494
H          3.12354        0.02447       -3.33357
H          4.69090        0.73461        0.73884
H          7.01089        0.81285       -1.28004
H          6.18841       -0.64507       -0.71737
H          7.14127        0.32281        0.42036
H          6.14838        3.14046       -0.46923
H          6.23080        2.60268        1.21811
H          4.70409        3.20524        0.54795
