19
-1850.91
C          0.94923       -0.14944       -0.02766
C          2.44220        0.16144       -0.06313
C          2.84104        1.62330        0.00945
C          1.97793        2.64581        0.14233
C          4.33842        1.89311       -0.03565
C          4.92582        1.82049       -1.44802
O          4.45730        2.89550       -2.25458
H          0.79140       -1.23222       -0.08218
H          0.42848        0.30581       -0.87624
H          0.48866        0.20646        0.89909
H          2.85082       -0.26995       -0.98467
H          2.91704       -0.36632        0.77290
H          0.90330        2.50358        0.19614
H          2.32593        3.67359        0.20469
H          4.84919        1.16870        0.61077
H          4.54786        2.88526        0.38303
H          4.68551        0.87709       -1.94869
H          6.01579        1.90314       -1.39669
H          3.48458        2.85193       -2.24613
