14
-1507.18
C          1.00000        0.00000        0.00000
C          2.44400        0.00000        0.00000
C          3.63416        0.00000        0.00000
C          5.07816        0.00000        0.00000
C          5.63372        1.42124        0.00105
C          7.09960        1.40385        0.00104
N          8.26159        1.38565        0.00103
H          0.60601        1.02089        0.01167
H          0.60592       -0.52051        0.87826
H          0.60593       -0.50029       -0.88993
H          5.44965       -0.54335       -0.87801
H          5.44965       -0.54465        0.87720
H          5.27319        1.96758        0.88141
H          5.27319        1.96888       -0.87850
