12
-1131.72
C          0.97219       -0.07164       -0.03540
N          2.42735       -0.00055       -0.09643
C          2.87835        1.39240        0.01127
C          4.39134        1.41591       -0.00983
O          5.04903        2.01834       -0.85450
H          0.65507       -1.11559       -0.11966
H          0.50836        0.48874       -0.85362
H          0.59741        0.31093        0.91932
H          2.73396       -0.37491       -0.99726
H          2.55660        1.84062        0.95721
H          2.50284        1.99692       -0.82128
H          4.88790        0.86851        0.81001
