19
-1852.75
C          0.94501        0.01792       -0.02545
C          2.46078       -0.01568        0.02709
C          3.13969        1.01331        0.96249
C          4.20837       -0.05048        1.27541
C          3.18564       -1.14416        0.84644
C          2.42974       -1.76353        2.01628
O          3.73304       -2.21381        0.04317
H          0.56209       -0.84369       -0.57998
H          0.60105        0.92414       -0.53308
H          0.49935        0.00637        0.97314
H          2.85616        0.05329       -0.99833
H          2.54003        1.30104        1.83373
H          3.50781        1.92093        0.47665
H          5.09148        0.01091        0.62878
H          4.54335       -0.07852        2.31617
H          2.00721       -1.00403        2.68228
H          3.09584       -2.39365        2.61550
H          1.60755       -2.39232        1.65861
H          4.23994       -1.77922       -0.66356
