14
-1412.24
N          0.94752       -0.00799       -0.33305
C          2.36139        0.04016        0.03158
C          3.31902       -0.81728       -0.74541
C          3.35324        0.68252       -0.90961
C          4.41058        1.57796       -0.37590
O          5.21331        1.05527        0.57904
O          4.52574        2.72541       -0.77596
H          0.48134        0.87470       -0.11694
H          0.44999       -0.72466        0.19607
H          2.54708        0.15263        1.09778
H          2.92808       -1.39470       -1.57909
H          4.09862       -1.34196       -0.21156
H          2.95559        1.05001       -1.85357
H          5.00636        0.13622        0.81465
