21
-1928.5
C          1.04474       -0.06710       -0.01960
C          2.56414       -0.04201        0.04705
N          3.04345        1.33717       -0.03084
C          4.50457        1.39243        0.03037
C          4.97649        2.84821        0.00111
C          6.50296        2.92179        0.02519
N          6.95134        4.30999        0.03529
H          0.68338       -1.09875        0.03320
H          0.68305        0.36967       -0.95583
H          0.60170        0.48821        0.81328
H          2.96639       -0.63110       -0.78568
H          2.88985       -0.50994        0.98414
H          2.64678        1.88149        0.73532
H          4.93099        0.85455       -0.82447
H          4.86444        0.91250        0.94817
H          4.56619        3.38792        0.86422
H          4.59648        3.34411       -0.90153
H          6.91955        2.41350       -0.85208
H          6.89103        2.41776        0.91712
H          6.60473        4.78819       -0.79586
H          7.96823        4.33872       -0.02231
