21
-1984.34
C          2.51335       -0.79449       -1.19093
C          2.15212        0.06059        0.01890
C          2.73429        1.49397       -0.00568
C          2.16286        2.28217       -1.19649
C          2.34731        2.23685        1.28301
O          4.15667        1.49964       -0.20492
C          4.95425        0.92338        0.81856
H          2.13469       -1.81227       -1.05278
H          3.59598       -0.85655       -1.33215
H          2.06530       -0.39986       -2.10696
H          2.50352       -0.46594        0.91457
H          1.05858        0.10659        0.10311
H          2.50587        1.87109       -2.15232
H          2.51341        3.32160       -1.17568
H          1.06746        2.29013       -1.19092
H          2.65375        1.68063        2.17485
H          1.26428        2.38813        1.34714
H          2.83931        3.21455        1.33349
H          5.99792        0.96703        0.49372
H          4.70025       -0.12644        0.98495
H          4.87321        1.48920        1.74985
