17
-1625.29
C          1.23416       -0.13162        0.89141
C          2.72183       -0.06501        0.60589
C          3.05328        1.22637       -0.08892
N          3.50446        1.22267       -1.30130
N          3.73604        2.47307       -1.74734
C          3.48410        2.45972       -3.18950
C          4.88049        2.39282       -2.65711
H          0.98444       -1.06540        1.40431
H          0.65394       -0.08216       -0.03623
H          0.91721        0.70341        1.52558
H          3.02807       -0.91218       -0.01591
H          3.28556       -0.09926        1.54326
H          2.88735        2.15829        0.48430
H          3.14038        3.39581       -3.60911
H          3.04936        1.56908       -3.62697
H          5.41997        1.45582       -2.72230
H          5.49241        3.28334       -2.71219
