12
-1230.43
O          0.97456       -0.39194        0.02499
C          2.31559       -0.47871        0.48523
C          3.09844        0.79907        0.20302
O          2.55358        1.78508       -0.29290
C          4.54326        0.79240        0.56677
C          5.33574        1.82325        0.25046
H          0.82591        0.54876       -0.20495
H          2.79587       -1.31859       -0.02380
H          2.29672       -0.65710        1.56367
H          4.92686       -0.07676        1.08801
H          4.95479        2.69381       -0.27859
H          6.38898        1.81905        0.51156
