16
-1551.14
C          0.94931       -0.00952        0.05389
C          2.46319        0.01306        0.00911
C          3.16792        1.05309        0.91364
C          4.23488       -0.01939        1.22868
O          5.44702        0.03315        0.45041
C          3.19694       -1.08660        0.81496
H          0.56135       -0.86925       -0.50129
H          0.53781        0.89742       -0.40002
H          0.57589       -0.07332        1.08098
H          2.81962        0.06632       -1.02953
H          2.59209        1.36399        1.79322
H          3.52894        1.94678        0.39665
H          4.49632       -0.06447        2.29122
H          5.16328        0.06996       -0.47875
H          3.58132       -1.91897        0.21876
H          2.63103       -1.49219        1.66180
