16
-1553.26
C          0.97183       -0.01486        0.02004
C          2.48692        0.00877        0.02218
C          3.15927        1.04816        0.95258
C          4.23949       -0.01135        1.24645
C          3.19735       -1.08955        0.86514
O          3.68782       -2.23274        0.14316
H          0.60180       -0.87671       -0.54420
H          0.57369        0.89052       -0.44883
H          0.56659       -0.07613        1.03540
H          2.87295        0.06352       -1.00600
H          2.56587        1.32138        1.83324
H          3.51294        1.96078        0.46664
H          5.10392        0.03608        0.57418
H          4.59478       -0.04103        2.27978
H          2.60831       -1.41996        1.73056
H          4.20530       -1.87285       -0.59704
