18
-1704.91
C          1.33621        3.49132        1.28237
C          2.51050        2.56935        1.02190
O          3.62049        3.35807        0.59545
N          4.70022        2.50339        0.34001
C          5.78341        3.17245        0.08484
C          5.87604        4.67843        0.06609
C          7.03118        2.40071       -0.26138
H          0.47116        2.92859        1.64289
H          1.05532        4.02305        0.36777
H          1.59956        4.25122        2.02468
H          2.25333        1.84207        0.24327
H          2.77758        2.03419        1.94047
H          5.26378        5.12244        0.85441
H          5.54251        5.04427       -0.90842
H          6.91223        4.98907        0.22565
H          6.83381        1.32531       -0.26598
H          7.80678        2.61886        0.47796
H          7.38119        2.70502       -1.25144
