15
-1564.2
C          0.94936        0.00569        0.02772
C          2.47000        0.00999        0.02768
C          3.02739        1.43282        0.00000
C          4.47139        1.43282        0.00000
C          5.66155        1.43282        0.00000
C          7.10358        1.43204       -0.00003
O          7.73500        2.47907       -0.00010
H          0.57333       -1.02200        0.04772
H          0.55563        0.49401       -0.86941
H          0.55558        0.52855        0.90516
H          2.83111       -0.55282       -0.84212
H          2.83107       -0.51855        0.91873
H          2.65571        1.98878        0.86889
H          2.65571        1.95457       -0.88986
H          7.58016        0.43873        0.00001
