13
-1378.45
N          0.96731        0.32018       -0.93833
C          2.10293        0.19490       -0.73711
C          3.49026        0.02758       -0.48505
C          4.32613        1.06958       -0.35391
C          5.76150        0.98130       -0.09042
C          6.69814        0.59290       -1.20641
N          6.60080        1.97324       -0.75117
H          3.85734       -0.98909       -0.40313
H          3.92317        2.07929       -0.44215
H          6.03861        0.72650        0.92754
H          6.29669        0.39339       -2.19249
H          7.60866        0.06180       -0.95908
H          7.39862        2.22334       -0.16437
