19
-1869.61
C          0.98140        0.01563       -0.00552
C          2.50248        0.00842        0.02818
O          2.95812        0.13961       -1.31929
C          3.07988        1.13784        0.88081
C          4.49275        0.66135        1.18927
C          4.35162       -0.84203        1.39271
C          3.08126       -1.26925        0.64784
H          0.55212       -0.07748        0.99704
H          0.60379       -0.80810       -0.62125
H          0.60820        0.94184       -0.45622
H          3.92437        0.03779       -1.33308
H          2.51904        1.25322        1.81609
H          3.09655        2.09925        0.35766
H          5.15813        0.86518        0.34229
H          4.91426        1.15896        2.06775
H          5.23479       -1.37767        1.03029
H          4.24650       -1.07100        2.45963
H          3.31529       -2.02401       -0.11110
H          2.38581       -1.71911        1.36631
