16
-1546.22
C          1.12882        0.13877        0.05989
C          2.63095       -0.09776       -0.08612
C          2.92623       -0.88532       -1.36144
C          3.36406        1.21425       -0.09853
C          3.83532        1.85494        1.18197
O          4.73059        1.13476        0.32386
H          0.90952        0.68321        0.98482
H          0.58415       -0.81083        0.08931
H          0.73588        0.73227       -0.77336
H          2.96489       -0.69925        0.76910
H          2.60506       -0.33543       -2.25350
H          2.41111       -1.85176       -1.35276
H          4.00066       -1.07582       -1.46070
H          3.12988        1.84880       -0.94336
H          3.57155        1.39744        2.12691
H          3.93240        2.93265        1.21126
