15
-1522.32
O          3.01732       -0.96653       -0.60636
C          2.35748        0.10741        0.05426
C          3.19490        1.38212       -0.00819
C          3.45745        1.85816       -1.44331
C          3.23226        3.31554       -1.30328
C          2.70628        3.54799       -0.10640
O          2.51613        2.44752        0.70060
H          2.44913       -1.75029       -0.50569
H          2.18120       -0.17461        1.09807
H          1.37721        0.26299       -0.41011
H          4.15653        1.20756        0.49404
H          2.75706        1.43233       -2.16935
H          4.47777        1.62198       -1.75955
H          3.42094        4.05498       -2.06479
H          2.37478        4.48352        0.31231
