19
-1838.39
C          1.44516       -0.52932       -0.11146
O          2.80816       -0.14704       -0.23575
C          2.99455        1.23857        0.04732
C          4.47756        1.56278       -0.09287
C          4.75533        3.03718        0.19185
C          6.21343        3.36040        0.03782
C          6.98056        3.85531        1.01706
H          1.36243       -1.59324       -0.34963
H          0.82274        0.03523       -0.81263
H          1.09562       -0.37256        0.91355
H          2.65430        1.45329        1.06695
H          2.40768        1.83696       -0.65895
H          4.81179        1.29623       -1.10429
H          5.05463        0.92433        0.58902
H          4.40803        3.28897        1.20128
H          4.18693        3.66274       -0.50638
H          6.65736        3.18345       -0.93972
H          6.58597        4.05344        2.00917
H          8.03013        4.07276        0.84307
