20
-1921.19
C          1.75960       -0.64008       -1.03059
C          2.79614       -0.29342        0.02710
C          3.00766        1.19085        0.11796
C          4.19073        1.79003       -0.10648
C          4.50437        3.25998       -0.04572
C          3.32796        4.18759        0.26335
N          5.55952        3.45106        0.94854
H          1.61020       -1.72370       -1.07293
H          2.07868       -0.30284       -2.02260
H          0.79349       -0.17492       -0.80680
H          3.73344       -0.81319       -0.20291
H          2.45756       -0.66063        1.00264
H          2.13634        1.77813        0.39448
H          5.04231        1.16553       -0.37677
H          4.90892        3.54644       -1.02400
H          2.89009        3.98040        1.24666
H          2.53915        4.08318       -0.49001
H          3.64713        5.23620        0.25641
H          5.18615        3.22136        1.86901
H          5.80876        4.43762        0.98851
