11
-1195.65
C          2.77781       -1.08519        0.38383
C          2.26761        0.12089        0.09585
C          3.00050        1.34098        0.01269
N          2.47461        2.54124       -0.27690
O          3.57879        3.39447       -0.23647
C          4.64764        2.61831        0.07223
N          4.35635        1.35231        0.23671
H          2.14138       -1.96261        0.42541
H          3.83744       -1.21984        0.58309
H          1.19997        0.19557       -0.09465
H          5.60401        3.11127        0.14865
