15
-1520.96
C          0.89699        0.30830       -0.14300
C          2.26882        0.23786       -0.74873
O          2.53317       -0.42864       -1.74173
C          3.30538        1.07197       -0.09280
C          4.34052        1.79853       -0.91847
C          3.24988        2.57077       -0.24391
O          3.63967        3.31435        0.91828
H          0.34891        1.14592       -0.58164
H          0.96577        0.43914        0.94041
H          0.36314       -0.62499       -0.34292
H          3.64466        0.67990        0.86026
H          4.30025        1.69048       -1.99701
H          5.34554        1.86092       -0.51859
H          2.47643        2.99515       -0.87706
H          4.05375        4.16029        0.67152
