12
-1249.98
O          0.93526        0.02576       -0.21351
C          2.15216        0.03222       -0.07102
N          2.90890        1.16801       -0.13550
O          4.18377        1.16209        0.48206
C          4.98716        0.09528       -0.03815
C          4.24559       -1.19990        0.05712
C          2.90654       -1.23264        0.08860
H          2.41975        2.05487       -0.12796
H          5.89208        0.04716        0.57528
H          5.28096        0.31440       -1.07023
H          4.81893       -2.11898        0.10389
H          2.33231       -2.14690        0.15412
