12
-1280.22
C          3.08831       -1.05746       -0.12474
C          2.51726        0.15191       -0.07159
C          3.18282        1.44172       -0.02970
C          2.47566        2.58265       -0.08299
C          4.66785        1.58337        0.10639
O          5.26357        2.65407        0.04707
H          2.46629       -1.94840       -0.15850
H          4.15919       -1.22182       -0.14839
H          1.42709        0.18376       -0.07072
H          1.39422        2.58909       -0.17195
H          2.96072        3.55516       -0.04237
H          5.22125        0.64750        0.27744
