15
-1521.01
O          2.35150       -0.42544       -1.47028
C          2.35973        0.09602       -0.14424
C          3.32086        1.27846       -0.06054
C          3.50370        1.77143        1.37957
O          3.43541        3.21519        1.38633
C          2.92956        3.52510        0.14396
C          2.81971        2.51845       -0.71358
H          1.69724       -1.14495       -1.49103
H          2.68146       -0.70634        0.52817
H          1.33684        0.38617        0.12070
H          4.28595        1.01022       -0.50792
H          4.47520        1.46661        1.78377
H          2.72424        1.39740        2.05465
H          2.70734        4.56782       -0.01147
H          2.47877        2.58622       -1.73567
