14
-1412.17
N          1.01622       -0.01989        0.05042
C          2.47000        0.00000        0.00000
C          2.95202        1.36117        0.00000
C          3.34930        2.48307        0.00000
C          3.86847        3.81469        0.04183
C          3.83756        4.66814       -1.19613
O          2.86946        4.82534       -0.15163
H          0.68967       -0.97582       -0.06837
H          0.65039        0.51195       -0.73788
H          2.80817       -0.52336       -0.90066
H          2.86471       -0.54711        0.86210
H          4.64029        4.01731        0.77508
H          3.49971        4.23380       -2.12798
H          4.58919        5.43966       -1.30158
