17
-1662.36
C          1.44237        0.08033        1.04836
C          2.65032        0.64818        0.30764
C          2.24768        1.15560       -1.08580
C          3.44131        1.43996       -1.99725
O          4.36845        2.34249       -1.41870
C          3.23937        1.74511        1.17369
O          3.08923        2.94472        0.95597
H          1.72552       -0.27729        2.04492
H          1.00429       -0.75992        0.49963
H          0.66580        0.84262        1.18270
H          3.41122       -0.13432        0.20566
H          1.64900        2.07075       -0.98694
H          1.61286        0.41239       -1.58283
H          3.09657        1.86336       -2.94618
H          3.97721        0.51248       -2.22182
H          3.86585        3.04272       -0.95265
H          3.80407        1.40061        2.05740
