17
-1645.35
C          3.00491       -1.13854       -0.51384
C          2.48522        0.09089        0.21363
C          3.42744        1.24814        0.07767
C          3.40319        2.15596       -1.12392
O          2.38897        1.90317       -2.10817
C          2.91048        2.65458        0.20852
O          3.78011        3.57443        0.88527
H          2.31320       -1.97722       -0.38777
H          3.98332       -1.44043       -0.12514
H          3.11653       -0.94446       -1.58571
H          2.36916       -0.14412        1.27773
H          1.48775        0.34167       -0.16509
H          4.39749        1.02947        0.51097
H          4.36009        2.52920       -1.47629
H          2.21984        2.70275       -2.63619
H          1.84077        2.80218        0.31794
H          3.65903        3.51796        1.84901
