14
-1377.12
C          0.98278       -0.00585        0.18444
C          2.46687        0.04729       -0.10818
C          3.30145        1.04474        0.73391
N          4.27079       -0.05456        0.91704
O          4.72292       -0.17838        2.25114
C          3.33974       -1.01434        0.59198
O          3.24319       -2.18200        0.88801
H          0.52171       -0.86018       -0.32210
H          0.48749        0.90262       -0.17426
H          0.78222       -0.10072        1.25677
H          2.67121        0.09957       -1.18596
H          2.84821        1.38800        1.66954
H          3.71556        1.89050        0.18061
H          5.53463       -0.70447        2.12076
