15
-1513.38
O          1.51078        0.05287        1.03332
C          2.46984        0.01760        0.27277
N          3.00714       -1.15761       -0.14662
C          4.00425       -1.26719       -1.18328
C          4.93058       -0.06606       -1.17582
C          4.07060        1.18306       -1.21282
N          3.06828        1.15172       -0.17492
H          2.49625       -1.97663        0.15560
H          4.56194       -2.19364       -1.01818
H          3.47673       -1.34957       -2.13933
H          5.53460       -0.07120       -0.25919
H          5.61705       -0.09473       -2.02810
H          4.67754        2.08188       -1.06894
H          3.54821        1.27127       -2.17149
H          2.60234        2.00493        0.10622
