13
-1349.49
N          1.03657       -0.03450       -0.12658
C          2.36581        0.09771       -0.06837
C          3.19689        1.19247       -0.02025
C          4.50718        0.67662        0.03529
N          5.64324        1.38795        0.09226
C          4.39598       -0.69193        0.02107
O          3.08498       -1.05255       -0.04201
H          0.43511        0.73849        0.13462
H          0.64794       -0.95159        0.06866
H          2.88731        2.22643       -0.02768
H          5.65427        2.39790       -0.01058
H          6.55871        0.95462        0.02053
H          5.10240       -1.50806        0.04842
