15
-1446.75
N          2.39957       -0.33753        1.42637
C          2.52656        0.07320        0.02720
C          3.01294        1.49488       -0.06332
N          4.01294        1.85116       -0.80634
O          4.15994        3.25098       -0.64573
C          2.93325        3.74850       -0.10333
C          2.36242        2.60106        0.68359
H          2.23187       -1.34310        1.46016
H          1.57847        0.09605        1.84517
H          1.55911       -0.00392       -0.47838
H          3.23878       -0.58159       -0.48501
H          2.28065        4.03914       -0.93415
H          3.12866        4.62631        0.51879
H          1.27263        2.55873        0.65221
H          2.71752        2.59373        1.71777
