17
-1638.73
C          0.78219        0.01636        0.00012
N          2.22118        0.03987        0.20638
C          3.02063       -0.82578       -0.64797
C          2.61249       -1.43032       -1.95208
N          2.81084       -0.35928       -2.95186
C          2.62413        0.92698       -2.24965
C          3.02590        0.66218       -0.83501
H          0.34831        0.94467        0.38592
H          0.34871       -0.80781        0.57607
H          0.44068       -0.09543       -1.03265
H          3.88927       -1.29117       -0.20227
H          3.23933       -2.29274       -2.20394
H          1.57216       -1.76877       -1.95275
H          3.78657       -0.40210       -3.24782
H          3.26022        1.69297       -2.70600
H          1.58787        1.26647       -2.33707
H          3.89794        1.21724       -0.51653
