17
-1603.15
N          1.06846       -0.01487       -0.24432
C          2.50394        0.01734        0.03389
C          2.94441        1.07317        1.04201
O          4.23275        0.65569        1.52210
C          4.36134       -0.76047        1.28466
C          3.03424       -1.25407        0.70488
N          3.14805       -2.40502       -0.19639
H          0.86506       -0.74970       -0.91902
H          0.78164        0.86282       -0.67648
H          3.04253        0.18498       -0.90862
H          2.26957        1.12695        1.90356
H          3.02395        2.06982        0.59867
H          5.19544       -0.90019        0.58794
H          4.61094       -1.26338        2.22433
H          2.37573       -1.53374        1.53772
H          3.71571       -2.15598       -1.00577
H          2.22135       -2.62982       -0.55582
