8
-852.42
S         -0.49564       -1.39826       -0.00178
C         -1.29849        0.11834       -0.00119
C         -0.36941        1.13654       -0.00095
N          0.95325        0.73887       -0.00123
C          1.00997       -0.57476       -0.00167
H         -2.37666        0.18921       -0.00104
H         -0.60366        2.19357       -0.00057
H          1.94907       -1.11324       -0.00196
