17
-1659.68
N          1.04611        0.50344        0.37328
C          2.32713        0.43280        0.44783
N          3.12877        1.49587        0.22333
C          4.50459        1.36874       -0.18963
C          5.15380        2.71571       -0.12005
C          6.25568        3.08930       -1.07936
C          4.90854        3.74766       -1.19370
H          0.64080       -0.41370        0.58746
H          2.85287       -0.50369        0.70216
H          2.62866        2.29554       -0.15128
H          4.54771        0.96048       -1.20557
H          5.03965        0.67860        0.47159
H          5.23994        3.06621        0.90334
H          6.54068        2.38510       -1.85322
H          7.07947        3.68413       -0.69949
H          4.81988        4.78378       -0.88648
H          4.28349        3.48225       -2.03891
