14
-1478.95
O          2.79252       -0.97871       -0.07925
C          2.36733        0.12746        0.22854
N          2.99613        1.31366       -0.02055
C          4.27356        1.38469       -0.69738
C          4.52163        2.85521       -0.72248
C          3.52226        3.52945       -0.13969
C          2.46508        2.60553        0.35732
H          1.40512        0.25627        0.75166
H          4.18549        0.95806       -1.70066
H          5.02886        0.84276       -0.12102
H          5.40237        3.30212       -1.16011
H          3.47629        4.60375       -0.03672
H          2.34430        2.64994        1.44336
H          1.50161        2.76517       -0.13490
