15
-1462.74
C          0.23307        0.77720       -0.20925
C         -0.85878       -0.24018       -0.06693
C          0.58209       -0.66396        0.05804
N          1.10118       -1.01310        1.38978
C          0.97140       -2.44747        1.62801
C          2.30610       -1.83099        1.30844
H          0.43843        1.17222       -1.19679
H          0.36637        1.49351        0.59327
H         -1.39712       -0.53922       -0.95789
H         -1.46402       -0.21178        0.83166
H          0.98740       -1.21105       -0.79224
H          0.48377       -3.05722        0.87742
H          0.77331       -2.73284        2.65371
H          3.01314       -1.70268        2.11889
H          2.75214       -2.02156        0.34104
