17
-1644.47
C          0.90987       -0.21615       -0.16206
C          2.39551       -0.15371       -0.15522
O          3.01057       -0.33111       -1.43832
C          3.11873        0.97254       -0.84680
C          4.51070        1.36060       -0.45747
C          4.51935        2.22541        0.79851
O          3.88708        3.47725        0.55590
H          0.50441        0.41467        0.63300
H          0.57542       -1.24426        0.01259
H          0.48928        0.12090       -1.11453
H          2.84503       -0.62918        0.70583
H          2.54696        1.78325       -1.27831
H          4.96016        1.91129       -1.29215
H          5.12389        0.46796       -0.28241
H          5.54623        2.42044        1.12198
H          3.99072        1.73249        1.62093
H          4.40784        3.94331       -0.11938
