15
-1526.57
C          1.00791        0.03721        0.08990
C          2.48521        0.04501       -0.04834
C          3.30077       -0.99015       -0.21947
O          4.64536       -0.70532       -0.30275
C          4.69970        0.74109       -0.28708
C          3.29943        1.28088        0.03373
O          2.86962        2.23406       -0.92548
H          0.60791       -0.98057        0.05064
H          0.54512        0.61036       -0.71884
H          0.71041        0.48085        1.04484
H          3.05787       -2.03817       -0.28632
H          5.06452        1.08189       -1.26311
H          5.42651        1.04691        0.47477
H          3.26179        1.73301        1.02965
H          2.73670        1.75815       -1.76448
