18
-1713.11
C          3.27880       -1.30155       -0.31451
C          2.53677       -0.02889        0.05819
O          1.97994       -0.18814        1.36100
C          3.44982        1.16387        0.08026
C          3.42539        2.18378       -1.03520
N          2.84163        2.48670        0.26912
C          3.66302        3.38692        1.07493
H          3.72990       -1.22038       -1.30808
H          2.59811       -2.15929       -0.30432
H          4.07347       -1.52012        0.40746
H          1.70440        0.12087       -0.63979
H          1.63780        0.69590        1.59486
H          4.38190        0.96544        0.59686
H          2.71857        2.05496       -1.84617
H          4.35410        2.66652       -1.31467
H          3.44438        3.22977        2.13626
H          3.41207        4.42520        0.83432
H          4.74365        3.26209        0.93315
