17
-1635.84
C          0.99403       -0.04024       -0.01194
C          2.52000        0.00000        0.00000
N          3.05122       -0.70339       -1.16535
C          3.00202        1.36117        0.00000
C          3.39930        2.48307        0.00000
C          3.88132        3.84424        0.00000
N          2.76713        4.77493       -0.12482
H          0.58359        0.47157        0.86663
H          0.62662       -1.07277        0.00382
H          0.58027        0.45216       -0.90070
H          2.87516       -0.51526        0.89944
H          2.73495       -0.22635       -2.00812
H          2.65277       -1.63883       -1.20281
H          4.58336        4.00504       -0.82497
H          4.41884        4.05603        0.93000
H          2.31471        4.61930       -1.02305
H          3.13207        5.72309       -0.14530
