9
-1093.99
N          1.00000        0.00000        0.00000
C          2.15101        0.00000        0.00000
C          3.59501        0.00000        0.00000
C          4.07703        1.36117        0.00000
C          4.47431        2.48307        0.00000
C          4.99070        3.93049        0.00000
N          5.38942        5.01869        0.00000
H          3.97198       -0.53469       -0.87863
H          3.97198       -0.53469        0.87863
