14
-1455.13
N          1.00004       -0.15194       -0.23555
C          2.44521       -0.02670        0.01055
C          2.97739        1.43282        0.00000
C          2.42498        2.20718        1.13423
C          1.97601        2.83937        2.05178
C          4.42139        1.43282        0.00000
C          5.61155        1.43282        0.00000
H          0.74761       -1.13907       -0.25564
H          0.77266        0.22477       -1.15456
H          2.96413       -0.61240       -0.75903
H          2.67067       -0.50192        0.97389
H          2.63597        1.90810       -0.92968
H          1.57367        3.39588        2.86661
H          6.67734        1.43900        0.00616
