19
-1796.65
C          1.10348       -0.22075        0.37137
C          2.61398       -0.07504        0.52152
O          3.23948       -1.02141       -0.35353
C          3.14482        1.34210        0.20593
C          2.48924        2.41327        1.07885
C          4.67340        1.41036        0.37485
O          5.33577        0.58565       -0.57525
H          0.56173        0.36206        1.12121
H          0.80967       -1.27077        0.47930
H          0.77634        0.09662       -0.62475
H          2.89607       -0.35661        1.54249
H          2.87211       -0.88109       -1.24659
H          2.92443        1.55854       -0.84823
H          2.62857        2.19651        2.14325
H          1.41568        2.48752        0.88107
H          2.92117        3.39921        0.87538
H          4.97793        1.09644        1.37914
H          5.03299        2.43293        0.21984
H          4.93913       -0.30687       -0.48671
