19
-1850.72
C          1.30972       -0.30172        2.11378
C          2.01935       -0.86757        0.89666
C          2.69790        0.22517        0.07631
O          3.32518       -0.39323       -1.04743
C          4.02270        0.40431       -1.92522
C          4.59575       -0.36836       -3.07843
C          4.20557        1.73104       -1.81615
H          0.84133       -1.10669        2.68828
H          0.52750        0.40420        1.81775
H          2.01299        0.21984        2.77046
H          1.30427       -1.41128        0.26725
H          2.76634       -1.60662        1.21152
H          3.44855        0.73186        0.69423
H          1.94873        0.94806       -0.26762
H          5.26626       -1.15191       -2.71110
H          5.16624        0.26770       -3.76336
H          3.79106       -0.84138       -3.65035
H          3.80829        2.31971       -0.99828
H          4.77496        2.27672       -2.56233
