15
-1546.83
C          2.34786       -0.42452        1.68787
C          2.68566       -0.49053        0.20964
O          3.81430        0.34832       -0.02388
C          4.30271        0.43575       -1.30578
C          3.81356       -0.18780       -2.38931
C          5.44044        1.27970       -1.45723
C          6.40110        1.99237       -1.57827
H          1.48986       -1.06139        1.92066
H          2.11565        0.60371        1.98452
H          3.20180       -0.74581        2.29347
H          1.82589       -0.13971       -0.37257
H          2.92188       -1.52634       -0.05978
H          2.95386       -0.84384       -2.35678
H          4.27540       -0.05172       -3.36317
H          7.25113        2.62424       -1.67855
