19
-1766.7
C          0.82383       -0.47314        0.20848
C          2.32118       -0.35120       -0.07743
C          2.76251       -1.48648       -1.00520
C          2.69274        1.00693       -0.70150
C          2.42077        2.19469        0.22377
N          2.86424        3.43493       -0.40504
H          0.50442        0.24127        0.97317
H          0.57905       -1.47433        0.58015
H          0.23105       -0.29461       -0.69525
H          2.86226       -0.46347        0.87063
H          2.25469       -1.42815       -1.97417
H          2.53657       -2.46223       -0.56227
H          3.84202       -1.44532       -1.18475
H          2.14537        1.14187       -1.64418
H          3.76060        0.99426       -0.95899
H          2.94657        2.06202        1.17518
H          1.35190        2.28171        0.43828
H          3.86712        3.39102       -0.58226
H          2.72204        4.21042        0.24096
