12
-1262.57
C          1.00827       -0.00523       -0.00616
C          2.49197        0.06255       -0.00083
C          3.25025        1.15775        0.00235
C          4.61430        0.64146        0.00921
O          5.62107        1.32384        0.02376
N          4.52392       -0.72079       -0.00187
O          3.17863       -1.14396        0.00082
H          0.55920        0.99321       -0.00248
H          0.64885       -0.54150        0.87759
H          0.65506       -0.53227       -0.89795
H          2.97960        2.19549        0.00306
H          5.28152       -1.38507        0.02250
