14
-1319.45
C          1.11989       -0.16488        0.00345
N          2.56357       -0.06548       -0.15659
C          3.02311        1.29617        0.09617
C          4.51204        1.34516       -0.05872
C          5.16315        2.13502       -0.92198
H          0.80179       -1.19430       -0.18991
H          0.59110        0.48769       -0.69889
H          0.81577        0.08684        1.02481
H          2.81152       -0.31761       -1.11299
H          2.77439        1.59757        1.12063
H          2.53718        2.00128       -0.59000
H          5.08492        0.68922        0.59349
H          4.63680        2.80867       -1.59080
H          6.24765        2.11858       -0.97646
