17
-1642.19
O          2.79610        4.00853       -1.00124
C          2.92223        2.84788       -1.81680
C          3.28078        1.63979       -0.95658
C          4.64739        1.76891       -0.34717
C          5.53943        0.55902       -0.22684
C          5.88573        1.65139       -1.19700
O          6.99330        2.48489       -0.82661
H          2.65504        4.76031       -1.60319
H          3.68492        3.03515       -2.57907
H          1.96120        2.67938       -2.31332
H          3.21967        0.73471       -1.57061
H          2.55458        1.53701       -0.14359
H          4.65124        2.48707        0.46674
H          5.20344       -0.38568       -0.64059
H          6.14567        0.45328        0.66576
H          5.76736        1.43244       -2.25257
H          6.90837        2.82478        0.07926
