16
-1583.01
C          1.00595        0.10401       -0.13068
O          2.40717        0.04935       -0.36500
C          3.07686        1.23434       -0.22690
C          4.40173        1.34314       -0.29051
C          4.81123        2.75549       -0.09444
N          3.56306        3.54407       -0.05760
C          2.45190        2.56679        0.01464
H          0.60784       -0.91132       -0.22428
H          0.50887        0.73089       -0.87726
H          0.78864        0.45951        0.88251
H          5.08576        0.52328       -0.44389
H          5.35687        2.87286        0.84767
H          5.45187        3.09733       -0.91449
H          3.48364        4.03425       -0.94729
H          1.69904        2.80966       -0.74183
H          1.99190        2.61381        1.00695
