15
-1368.25
C          1.22504       -0.44097       -0.44104
C          2.71610       -0.36080       -0.18320
O          3.12550        0.99122       -0.31880
S          4.70659        1.31264       -0.09688
C          4.61705        3.06644       -0.36055
O          5.03736        1.06667        1.29072
O          5.45538        0.71596       -1.18205
H          0.86648       -1.46935       -0.34213
H          0.98784       -0.07923       -1.44703
H          0.67713        0.19390        0.26312
H          3.25300       -0.98490       -0.90534
H          2.93867       -0.71459        0.82895
H          4.24271        3.25346       -1.36868
H          5.62308        3.47708       -0.25322
H          3.95335        3.50260        0.38820
