20
-1914.89
C          0.97114       -0.06076       -0.00048
C          2.47944       -0.14728       -0.16679
C          3.16786        1.14676        0.26569
C          4.65051        1.06086        0.06622
N          5.55130        1.78704        0.96173
C          5.52418        0.33008        1.05738
C          6.69905       -0.45117        0.58134
H          0.50232       -1.00431       -0.29734
H          0.55367        0.73689       -0.62294
H          0.70180        0.13898        1.04151
H          2.71801       -0.36720       -1.21426
H          2.86009       -0.98733        0.42675
H          2.92515        1.35628        1.31492
H          2.78255        1.98703       -0.32439
H          4.93422        1.05500       -0.98047
H          5.04349        2.21050        1.74022
H          5.07066       -0.09736        1.94322
H          7.24005        0.05883       -0.22306
H          6.37336       -1.42656        0.20593
H          7.39861       -0.62112        1.40604
