13
-1223.34
O          0.91153        0.01367        0.19562
S          2.31921        0.04242       -0.14141
O          2.78992        0.17437       -1.50605
C          3.12504        1.26543        0.84556
C          4.42186        0.58238        1.24076
O          4.11758       -0.76706        1.64165
C          3.18608       -1.29575        0.66843
H          2.49568        1.44679        1.72151
H          3.27411        2.18612        0.28015
H          5.12508        0.53925        0.40053
H          4.91167        1.09738        2.07203
H          3.74155       -1.86364       -0.08241
H          2.46829       -1.93768        1.18267
