13
-1427.95
C          1.00000        0.00000        0.00000
C          2.44400        0.00000        0.00000
C          3.63416        0.00000        0.00000
C          5.08333       -0.00974       -0.00083
O          5.66611       -1.08557       -0.09125
C          5.88056        1.24210        0.10437
C          5.35645        2.46975        0.20755
H          0.60613        1.02093        0.01219
H          0.60593       -0.52091        0.87801
H          0.60592       -0.49981       -0.89019
H          6.95537        1.09287        0.09181
H          4.28672        2.65297        0.22296
H          6.00634        3.33676        0.28040
