11
-1243.97
O          0.99817        0.09828       -0.00000
C          2.34237       -0.03597       -0.00000
O          2.92786       -1.10463        0.00000
C          3.05200        1.21763        0.00000
C          3.64708        2.24834        0.00000
C          4.35008        3.46597        0.00000
C          3.71900        4.64468        0.00000
H          0.73422        1.03732       -0.00000
H          5.43639        3.43265       -0.00000
H          2.63636        4.72088        0.00000
H          4.28450        5.57147        0.00000
