12
-1116.89
C          1.03362       -0.04290        0.08716
S          2.80249       -0.05404       -0.06308
O          3.32858       -0.70342        1.12302
O          3.12435       -0.55868       -1.38426
C          3.18912        1.63789        0.03358
C          3.10604        2.41897       -1.05093
H          0.60426        0.50504       -0.75382
H          0.75809        0.42222        1.03579
H          0.68624       -1.07834        0.06854
H          3.50990        2.01544        0.99518
H          2.80856        2.02954       -2.02187
H          3.36296        3.47219       -0.99485
