17
-1569.1
C          1.22918        0.37228       -0.14655
C          2.72345        0.35576       -0.09208
N          3.39954        1.45495       -0.13406
O          4.76705        1.14505       -0.05479
C          5.50702        2.36854       -0.00968
C          6.99617        2.03030        0.07490
N          7.84756        3.21971        0.11462
H          0.89849       -0.23448       -0.99350
H          0.85191        1.39233       -0.25520
H          0.83744       -0.06813        0.77354
H          3.21136       -0.63140       -0.00657
H          5.19540        2.94818        0.86782
H          5.29766        2.94991       -0.91605
H          7.27974        1.40576       -0.78012
H          7.18031        1.42470        0.96933
H          7.72854        3.75410       -0.74589
H          8.82517        2.93060        0.13646
