18
-1759.89
C          2.65271       -1.43326        0.08202
C          2.44124       -0.16758        0.90403
C          3.11633        1.06033        0.27506
C          2.66436        2.33680        0.98655
C          4.63686        0.97412        0.33946
N          5.29435        1.81345       -0.51312
O          5.26318        0.25314        1.10650
H          2.12491       -2.27396        0.54342
H          3.71171       -1.69940        0.01541
H          2.26585       -1.30846       -0.93449
H          2.81180       -0.33406        1.92271
H          1.36157        0.00938        0.98319
H          2.82132        1.12591       -0.78006
H          2.94549        2.31887        2.04569
H          1.57743        2.45447        0.92417
H          3.12235        3.22622        0.54059
H          4.82535        2.33599       -1.23851
H          6.30504        1.76325       -0.52495
