17
-1651.31
C          0.90809        0.02988        0.08198
C          2.41997        0.04705       -0.01331
C          3.15853        1.05083        0.90262
C          4.21985       -0.03420        1.16800
O          5.43019        0.02750        0.37976
C          3.17692       -1.09859        0.71059
O          3.68462       -2.13449       -0.15215
H          0.49817       -0.81577       -0.47876
H          0.48660        0.94779       -0.33856
H          0.56852       -0.05536        1.11870
H          2.73260        0.14533       -1.06360
H          2.60608        1.34490        1.80196
H          3.51745        1.95442        0.40058
H          4.48631       -0.12086        2.22762
H          5.12961        0.13149       -0.54201
H          2.63306       -1.53436        1.55638
H          4.61907       -2.23273        0.10662
