14
-1355.73
C          2.52602       -0.91840        0.62063
O          3.87745       -0.47341        0.63650
C          4.02159        0.79766        0.00042
C          5.48776        1.18680        0.02141
C          5.89207        1.54168        1.42459
O          6.42496        2.60897        1.71806
H          2.47853       -1.89027        1.11885
H          2.17375       -1.03517       -0.40866
H          1.88570       -0.21550        1.16198
H          3.40892        1.54124        0.52345
H          3.68047        0.71821       -1.03793
H          5.66108        2.05468       -0.62265
H          6.12443        0.35999       -0.30911
H          5.72780        0.76293        2.18908
