19
-1767.17
C          0.97932       -0.10947        0.00500
C          2.50890       -0.00662       -0.01858
C          3.03670       -0.78237       -1.23475
C          2.99605        1.46652       -0.02574
C          2.47966        2.27223        1.16877
N          4.46204        1.51863       -0.02176
H          0.56723        0.28621        0.93776
H          0.65792       -1.15405       -0.06754
H          0.53287        0.44033       -0.82992
H          2.88840       -0.50470        0.88468
H          2.71384       -0.31496       -2.17110
H          2.66745       -1.81353       -1.22737
H          4.12993       -0.83158       -1.23670
H          2.64767        1.95240       -0.94512
H          2.73483        1.78962        2.11903
H          1.39254        2.39265        1.12685
H          2.90726        3.28169        1.17772
H          4.81884        1.09650        0.83490
H          4.77250        2.48903       -0.00984
