16
-1568.38
O          0.94326       -0.07854       -0.75308
C          2.27130       -0.00821       -0.19527
C          3.32748       -0.65255       -1.05475
C          3.22791        0.84272       -0.98747
C          2.29746       -0.06843        1.33589
C          1.48929        0.87095        2.19862
N          1.08010       -0.51687        2.03430
H          0.33779       -0.39902       -0.05497
H          3.00497       -1.14335       -1.96563
H          4.16732       -1.12992       -0.56581
H          3.99892        1.38087       -0.45063
H          2.83723        1.36668       -1.85185
H          3.23203       -0.41867        1.76982
H          0.87456        1.61485        1.70607
H          1.88312        1.15564        3.16589
H          1.33166       -1.07371        2.85370
