10
-1020.97
O          0.91970       -0.07585        0.06687
S          2.35377       -0.07984        0.25537
O          2.95794       -0.07653        1.56902
C          3.03952        1.21019       -0.67462
C          3.78395        0.75786       -1.68354
C          3.72738       -0.69963       -1.60768
N          3.03353       -1.24195       -0.66745
H          2.84885        2.23761       -0.41646
H          4.32847        1.31920       -2.42150
H          4.28122       -1.28200       -2.35889
