17
-1648.63
C          3.06370        0.70261       -2.02854
O          4.11928        1.23386       -1.23602
C          3.78200        2.00813       -0.14218
C          2.53382        2.35284        0.21984
C          4.99172        2.49092        0.63847
C          5.72474        1.34276        1.32068
O          5.89370        3.13293       -0.26214
H          3.51148        0.09415       -2.81952
H          2.49065        1.50532       -2.50397
H          2.41307        0.05393       -1.43322
H          1.64985        2.04312       -0.32125
H          2.36290        2.98341        1.08871
H          4.70581        3.23199        1.39312
H          6.11480        0.62562        0.58885
H          5.07348        0.80900        2.02069
H          6.59184        1.72267        1.87254
H          5.84130        2.62224       -1.09113
