15
-1434.75
C          2.29762       -0.62238       -0.16378
O          3.08738        0.46150       -0.65019
N          2.93930        1.50699        0.26903
C          4.19128        1.92198        0.88009
C          3.95602        3.43344        1.02447
N          2.89321        3.79897        0.03922
C          2.41228        2.63671       -0.29910
H          2.39491       -1.45574       -0.86452
H          1.24253       -0.33554       -0.10811
H          2.65633       -0.94890        0.81769
H          5.04168        1.73014        0.21533
H          4.36406        1.43406        1.84316
H          4.87255        3.99769        0.82541
H          3.60351        3.68349        2.03178
H          1.60896        2.48656       -1.03710
