12
-1359.29
O          0.98544       -0.07096        0.09725
C          2.34309       -0.03081        0.00618
C          3.03614        1.16913       -0.07753
C          4.42590        1.13724       -0.16881
C          5.06118       -0.09639       -0.17230
N          4.41046       -1.27715       -0.09181
C          3.06075       -1.21671       -0.00407
H          0.64478        0.83883        0.08933
H          2.52108        2.12365       -0.07327
H          5.00310        2.05257       -0.23598
H          6.14290       -0.16892       -0.24199
H          2.55436       -2.17471        0.05976
