20
-1911.44
C          2.77420       -0.99716       -0.69314
N          2.28089        0.21467       -0.05285
C          3.30630        1.26040        0.02132
C          3.44260        2.29502       -1.07119
C          2.57673        2.28937       -2.28562
C          2.85834        2.68139        0.26384
C          3.62373        3.56400        1.18846
H          1.96896       -1.73590       -0.74931
H          3.60102       -1.43784       -0.12678
H          3.11185       -0.79621       -1.71479
H          1.94272       -0.01476        0.88153
H          4.22855        0.95580        0.51438
H          4.44771        2.62481       -1.31027
H          1.53611        2.03632       -2.05977
H          2.95562        1.56681       -3.01485
H          2.58614        3.27880       -2.75368
H          1.79310        2.87704        0.31824
H          4.70147        3.37814        1.13879
H          3.29710        3.40044        2.21989
H          3.44758        4.61436        0.93718
