15
-1650.02
C          0.92562       -0.11418        0.00972
C          2.41518        0.00005        0.00261
C          3.09918        1.15000       -0.00264
C          2.55805        2.49363        0.00032
C          3.60745        3.33435       -0.00526
C          4.83909        2.56433       -0.01226
C          4.54487        1.25446       -0.01058
H          0.63463       -1.16939       -0.01432
H          0.48851        0.36899       -0.86987
H          0.50225        0.32572        0.91832
H          2.96271       -0.93947        0.00147
H          1.51493        2.76250        0.00685
H          3.56453        4.41234       -0.00430
H          5.82622        2.99914       -0.01772
H          5.24136        0.43240       -0.01447
