17
-1655.09
C          1.15619        0.43020       -1.59304
C          2.61900        0.49749       -1.29926
C          3.15137        1.16253       -0.25880
C          4.61754        1.25610        0.09059
O          5.39728        0.49113       -0.82694
C          5.11825        2.71144        0.07804
O          5.11841        3.22569       -1.25999
H          0.82106       -0.61125       -1.58053
H          0.95742        0.84413       -2.58606
H          0.56083        0.98978       -0.86441
H          3.26766       -0.04931       -1.98104
H          2.48324        1.68215        0.42564
H          4.76242        0.82917        1.08870
H          5.62817        1.10575       -1.55025
H          6.15553        2.75042        0.42582
H          4.51117        3.36550        0.71206
H          4.19396        3.20916       -1.56957
