16
-1578.52
C          0.93633        0.13787        0.16837
C          2.40525       -0.13122       -0.11959
O          2.57337       -1.49795       -0.55389
C          2.67792       -1.49755       -1.99075
C          3.17737       -0.14615       -2.37849
N          2.28511        1.00294       -2.46580
C          2.97539        0.73422       -1.20337
H          0.77684        1.17465        0.47633
H          0.57898       -0.52613        0.96222
H          0.31008       -0.06264       -0.70877
H          2.98382       -0.01145        0.80215
H          3.37012       -2.29147       -2.28617
H          1.69190       -1.70894       -2.41711
H          4.11763       -0.13219       -2.90865
H          2.73183        1.77381       -2.96536
H          3.76454        1.40140       -0.88987
