
 OpenBabel05052217073D

 23 22  0  0  0  0  0  0  0  0999 V2000
    1.0361   -0.0493   -0.0293 C   0  0  0  0  0  0  0  0  0  0  0  0
    2.5678   -0.1158   -0.0285 C   0  0  0  0  0  0  0  0  0  0  0  0
    3.1085   -0.1908   -1.4613 C   0  0  0  0  0  0  0  0  0  0  0  0
    3.1182    1.1521    0.6458 C   0  0  0  0  0  0  0  0  0  0  0  0
    3.1634   -1.5586    0.9727 S   0  0  0  0  0  0  0  0  0  0  0  0
    2.4061   -2.9644    0.0865 C   0  0  0  0  0  0  0  0  0  0  0  0
    2.7325   -4.2684    0.7979 C   0  0  0  0  0  0  0  0  0  0  0  0
    2.1254   -5.4425    0.0734 C   0  0  0  0  0  0  0  0  0  0  0  0
    1.4541   -5.3590   -0.9516 O   0  0  0  0  0  0  0  0  0  0  0  0
    0.6891    0.8515   -0.5491 H   0  0  0  0  0  0  0  0  0  0  0  0
    0.6330   -0.0116    0.9894 H   0  0  0  0  0  0  0  0  0  0  0  0
    0.5815   -0.8987   -0.5476 H   0  0  0  0  0  0  0  0  0  0  0  0
    2.7922    0.6860   -2.0388 H   0  0  0  0  0  0  0  0  0  0  0  0
    2.7412   -1.0687   -2.0010 H   0  0  0  0  0  0  0  0  0  0  0  0
    4.2045   -0.2117   -1.4790 H   0  0  0  0  0  0  0  0  0  0  0  0
    2.7836    2.0502    0.1119 H   0  0  0  0  0  0  0  0  0  0  0  0
    4.2145    1.1703    0.6490 H   0  0  0  0  0  0  0  0  0  0  0  0
    2.7721    1.2470    1.6819 H   0  0  0  0  0  0  0  0  0  0  0  0
    2.7882   -2.9999   -0.9381 H   0  0  0  0  0  0  0  0  0  0  0  0
    1.3205   -2.8379    0.0510 H   0  0  0  0  0  0  0  0  0  0  0  0
    2.3324   -4.2744    1.8181 H   0  0  0  0  0  0  0  0  0  0  0  0
    3.8140   -4.4382    0.8438 H   0  0  0  0  0  0  0  0  0  0  0  0
    2.3224   -6.4272    0.5318 H   0  0  0  0  0  0  0  0  0  0  0  0
  1  2  1  0  0  0  0
  1 10  1  0  0  0  0
  1 11  1  0  0  0  0
  1 12  1  0  0  0  0
  2  3  1  0  0  0  0
  2  4  1  0  0  0  0
  2  5  1  0  0  0  0
  3 13  1  0  0  0  0
  3 14  1  0  0  0  0
  3 15  1  0  0  0  0
  4 16  1  0  0  0  0
  4 17  1  0  0  0  0
  4 18  1  0  0  0  0
  5  6  1  0  0  0  0
  6  7  1  0  0  0  0
  6 19  1  0  0  0  0
  6 20  1  0  0  0  0
  7  8  1  0  0  0  0
  7 21  1  0  0  0  0
  7 22  1  0  0  0  0
  8  9  2  0  0  0  0
  8 23  1  0  0  0  0
M  END
$$$$
