
 OpenBabel05052217073D

 18 19  0  0  1  0  0  0  0  0999 V2000
    0.7115   -0.0005   -0.0994 C   0  0  0  0  0  0  0  0  0  0  0  0
    2.1992    0.1559    0.1475 C   0  0  3  0  0  0  0  0  0  0  0  0
    3.0407   -0.9960   -0.3975 C   0  0  0  0  0  0  0  0  0  0  0  0
    4.4065   -0.5066   -0.5150 N   0  0  0  0  0  0  0  0  0  0  0  0
    4.5945    0.9591   -0.4355 C   0  0  3  0  0  0  0  0  0  0  0  0
    2.9106    1.6442   -0.6631 S   0  0  0  0  0  0  0  0  0  0  0  0
    5.4876    0.8669   -1.6715 C   0  0  0  0  0  0  0  0  0  0  0  0
    5.0390   -0.5973   -1.7308 C   0  0  0  0  0  0  0  0  0  0  0  0
    5.0550   -1.4808   -2.5553 O   0  0  0  0  0  0  0  0  0  0  0  0
    0.3353   -0.8836    0.4298 H   0  0  0  0  0  0  0  0  0  0  0  0
    0.4786   -0.1264   -1.1616 H   0  0  0  0  0  0  0  0  0  0  0  0
    0.1561    0.8664    0.2749 H   0  0  0  0  0  0  0  0  0  0  0  0
    2.3811    0.2684    1.2225 H   0  0  0  0  0  0  0  0  0  0  0  0
    2.6763   -1.3324   -1.3768 H   0  0  0  0  0  0  0  0  0  0  0  0
    3.0353   -1.8530    0.2821 H   0  0  0  0  0  0  0  0  0  0  0  0
    5.0919    1.2634    0.4896 H   0  0  0  0  0  0  0  0  0  0  0  0
    6.5581    0.9804   -1.4717 H   0  0  0  0  0  0  0  0  0  0  0  0
    5.2067    1.4652   -2.5404 H   0  0  0  0  0  0  0  0  0  0  0  0
  1  2  1  0  0  0  0
  1 10  1  0  0  0  0
  1 11  1  0  0  0  0
  1 12  1  0  0  0  0
  2  3  1  0  0  0  0
  2  6  1  0  0  0  0
  2 13  1  0  0  0  0
  3  4  1  0  0  0  0
  3 14  1  0  0  0  0
  3 15  1  0  0  0  0
  4  5  1  0  0  0  0
  4  8  1  0  0  0  0
  5  6  1  0  0  0  0
  5  7  1  0  0  0  0
  5 16  1  0  0  0  0
  7  8  1  0  0  0  0
  7 17  1  0  0  0  0
  7 18  1  0  0  0  0
  8  9  2  0  0  0  0
M  END
$$$$
