
 OpenBabel05052217073D

  4  3  0  0  0  0  0  0  0  0999 V2000
    1.0246   -0.0884   -0.0948 N   0  0  0  0  0  0  0  0  0  0  0  0
    2.0419   -0.0578   -0.0451 H   0  0  0  0  0  0  0  0  0  0  0  0
    0.7130    0.8815   -0.0713 H   0  0  0  0  0  0  0  0  0  0  0  0
    0.7130   -0.5049    0.7814 H   0  0  0  0  0  0  0  0  0  0  0  0
  1  2  1  0  0  0  0
  1  3  1  0  0  0  0
  1  4  1  0  0  0  0
M  END
$$$$
