
 OpenBabel05052217073D

 18 18  0  0  1  0  0  0  0  0999 V2000
    1.5774   -0.2077   -1.3145 C   0  0  0  0  0  0  0  0  0  0  0  0
    2.5453   -0.0236    0.1971 S   0  0  0  0  0  0  0  0  0  0  0  0
    3.4290    1.4965   -0.2527 C   0  0  3  0  0  0  0  0  0  0  0  0
    4.4451    1.9138    0.8584 C   0  0  3  0  0  0  0  0  0  0  0  0
    3.7326    3.2828    0.7030 C   0  0  0  0  0  0  0  0  0  0  0  0
    3.9708    4.4506    0.8962 O   0  0  0  0  0  0  0  0  0  0  0  0
    2.6527    2.6859    0.1170 N   0  0  0  0  0  0  0  0  0  0  0  0
    5.8652    1.8425    0.4594 N   0  0  0  0  0  0  0  0  0  0  0  0
    6.6056    0.7007    0.5610 C   0  0  0  0  0  0  0  0  0  0  0  0
    7.7851    0.6383    0.2500 O   0  0  0  0  0  0  0  0  0  0  0  0
    1.0752   -1.1791   -1.2979 H   0  0  0  0  0  0  0  0  0  0  0  0
    2.2158   -0.1659   -2.2012 H   0  0  0  0  0  0  0  0  0  0  0  0
    0.8180    0.5757   -1.3758 H   0  0  0  0  0  0  0  0  0  0  0  0
    3.8037    1.5512   -1.2822 H   0  0  0  0  0  0  0  0  0  0  0  0
    4.2905    1.4918    1.8603 H   0  0  0  0  0  0  0  0  0  0  0  0
    2.0910    3.2724   -0.4836 H   0  0  0  0  0  0  0  0  0  0  0  0
    6.3800    2.6660    0.1635 H   0  0  0  0  0  0  0  0  0  0  0  0
    6.0393   -0.1641    0.9456 H   0  0  0  0  0  0  0  0  0  0  0  0
  1  2  1  0  0  0  0
  1 11  1  0  0  0  0
  1 12  1  0  0  0  0
  1 13  1  0  0  0  0
  2  3  1  0  0  0  0
  3  4  1  0  0  0  0
  3  7  1  0  0  0  0
  3 14  1  0  0  0  0
  4  5  1  0  0  0  0
  4  8  1  0  0  0  0
  4 15  1  0  0  0  0
  5  6  2  0  0  0  0
  5  7  1  0  0  0  0
  7 16  1  0  0  0  0
  8  9  1  0  0  0  0
  8 17  1  0  0  0  0
  9 10  2  0  0  0  0
  9 18  1  0  0  0  0
M  END
$$$$
