
 OpenBabel05052217073D

 10  9  0  0  0  0  0  0  0  0999 V2000
    1.0512    0.0732   -0.0574 C   0  0  0  0  0  0  0  0  0  0  0  0
    2.5079    0.0836   -0.0439 N   0  0  0  0  0  0  0  0  0  0  0  0
    3.0095    0.9792    0.9898 C   0  0  0  0  0  0  0  0  0  0  0  0
    0.6979   -0.6083   -0.8374 H   0  0  0  0  0  0  0  0  0  0  0  0
    0.6450    1.0677   -0.2691 H   0  0  0  0  0  0  0  0  0  0  0  0
    0.6494   -0.2820    0.8971 H   0  0  0  0  0  0  0  0  0  0  0  0
    2.8494    0.3956   -0.9523 H   0  0  0  0  0  0  0  0  0  0  0  0
    2.6820    0.6583    1.9840 H   0  0  0  0  0  0  0  0  0  0  0  0
    2.6824    2.0103    0.8204 H   0  0  0  0  0  0  0  0  0  0  0  0
    4.1038    0.9674    0.9839 H   0  0  0  0  0  0  0  0  0  0  0  0
  1  2  1  0  0  0  0
  1  4  1  0  0  0  0
  1  5  1  0  0  0  0
  1  6  1  0  0  0  0
  2  3  1  0  0  0  0
  2  7  1  0  0  0  0
  3  8  1  0  0  0  0
  3  9  1  0  0  0  0
  3 10  1  0  0  0  0
M  END
$$$$
