
 OpenBabel05052217073D

 15 14  0  0  0  0  0  0  0  0999 V2000
    1.4698    0.2299    1.0245 C   0  0  0  0  0  0  0  0  0  0  0  0
    2.3309    0.1554    0.0034 C   0  0  0  0  0  0  0  0  0  0  0  0
    3.0051    1.3003   -0.5799 C   0  0  0  0  0  0  0  0  0  0  0  0
    2.3086    2.3240   -1.1045 C   0  0  0  0  0  0  0  0  0  0  0  0
    4.5133    1.2888   -0.5509 C   0  0  0  0  0  0  0  0  0  0  0  0
    5.1777    0.1562   -1.3174 C   0  0  0  0  0  0  0  0  0  0  0  0
    4.6095   -0.6902   -1.9996 O   0  0  0  0  0  0  0  0  0  0  0  0
    1.0040   -0.6697    1.4152 H   0  0  0  0  0  0  0  0  0  0  0  0
    1.2165    1.1729    1.4963 H   0  0  0  0  0  0  0  0  0  0  0  0
    2.5646   -0.8176   -0.4266 H   0  0  0  0  0  0  0  0  0  0  0  0
    1.2235    2.3238   -1.1220 H   0  0  0  0  0  0  0  0  0  0  0  0
    2.8034    3.1881   -1.5375 H   0  0  0  0  0  0  0  0  0  0  0  0
    4.8568    1.2272    0.4886 H   0  0  0  0  0  0  0  0  0  0  0  0
    4.9183    2.2199   -0.9663 H   0  0  0  0  0  0  0  0  0  0  0  0
    6.2780    0.1380   -1.2286 H   0  0  0  0  0  0  0  0  0  0  0  0
  1  2  2  0  0  0  0
  1  8  1  0  0  0  0
  1  9  1  0  0  0  0
  2  3  1  0  0  0  0
  2 10  1  0  0  0  0
  3  4  2  0  0  0  0
  3  5  1  0  0  0  0
  4 11  1  0  0  0  0
  4 12  1  0  0  0  0
  5  6  1  0  0  0  0
  5 13  1  0  0  0  0
  5 14  1  0  0  0  0
  6  7  2  0  0  0  0
  6 15  1  0  0  0  0
M  END
$$$$
