
 OpenBabel05052217073D

 17 16  0  0  1  0  0  0  0  0999 V2000
    1.1526    3.2994   -0.1179 C   0  0  0  0  0  0  0  0  0  0  0  0
    2.6447    3.0160   -0.1181 C   0  0  0  0  0  0  0  0  0  0  0  0
    2.9828    1.4756   -1.0298 S   0  0  0  0  0  0  0  0  0  0  0  0
    4.7913    1.4268   -0.8683 C   0  0  3  0  0  0  0  0  0  0  0  0
    5.3172    0.1473   -1.5171 C   0  0  0  0  0  0  0  0  0  0  0  0
    5.3606    2.5917   -1.5253 N   0  0  0  0  0  0  0  0  0  0  0  0
    0.9500    4.2242    0.4329 H   0  0  0  0  0  0  0  0  0  0  0  0
    0.5893    2.4948    0.3666 H   0  0  0  0  0  0  0  0  0  0  0  0
    0.7691    3.4312   -1.1357 H   0  0  0  0  0  0  0  0  0  0  0  0
    3.0043    2.9153    0.9105 H   0  0  0  0  0  0  0  0  0  0  0  0
    3.1653    3.8523   -0.5939 H   0  0  0  0  0  0  0  0  0  0  0  0
    5.0595    1.4284    0.1921 H   0  0  0  0  0  0  0  0  0  0  0  0
    5.0292    0.0688   -2.5722 H   0  0  0  0  0  0  0  0  0  0  0  0
    4.9474   -0.7422   -0.9942 H   0  0  0  0  0  0  0  0  0  0  0  0
    6.4122    0.1136   -1.4735 H   0  0  0  0  0  0  0  0  0  0  0  0
    4.9834    2.6275   -2.4711 H   0  0  0  0  0  0  0  0  0  0  0  0
    6.3670    2.4717   -1.6248 H   0  0  0  0  0  0  0  0  0  0  0  0
  1  2  1  0  0  0  0
  1  7  1  0  0  0  0
  1  8  1  0  0  0  0
  1  9  1  0  0  0  0
  2  3  1  0  0  0  0
  2 10  1  0  0  0  0
  2 11  1  0  0  0  0
  3  4  1  0  0  0  0
  4  5  1  0  0  0  0
  4  6  1  0  0  0  0
  4 12  1  0  0  0  0
  5 13  1  0  0  0  0
  5 14  1  0  0  0  0
  5 15  1  0  0  0  0
  6 16  1  0  0  0  0
  6 17  1  0  0  0  0
M  END
$$$$
