
 OpenBabel05052217073D

 14 14  0  0  1  0  0  0  0  0999 V2000
    0.0324    1.3592   -0.1868 C   0  0  0  0  0  0  0  0  0  0  0  0
   -1.3589    0.7549    0.0233 C   0  0  3  0  0  0  0  0  0  0  0  0
   -1.2884   -0.6919    0.3040 N   0  0  0  0  0  0  0  0  0  0  0  0
   -0.1332   -1.2384   -0.3804 C   0  0  0  0  0  0  0  0  0  0  0  0
    1.1852   -0.0333   -0.1925 S   0  0  0  0  0  0  0  0  0  0  0  0
   -2.0105    1.4231    1.2181 C   0  0  0  0  0  0  0  0  0  0  0  0
   -3.0015    2.1474    1.1258 O   0  0  0  0  0  0  0  0  0  0  0  0
    0.3238    2.0861    0.5773 H   0  0  0  0  0  0  0  0  0  0  0  0
    0.0906    1.8440   -1.1654 H   0  0  0  0  0  0  0  0  0  0  0  0
   -1.9836    0.9367   -0.8601 H   0  0  0  0  0  0  0  0  0  0  0  0
   -2.1400   -1.1547   -0.0106 H   0  0  0  0  0  0  0  0  0  0  0  0
   -0.3357   -1.3833   -1.4459 H   0  0  0  0  0  0  0  0  0  0  0  0
    0.1585   -2.1995    0.0521 H   0  0  0  0  0  0  0  0  0  0  0  0
   -1.5217    1.2488    2.1930 H   0  0  0  0  0  0  0  0  0  0  0  0
  1  2  1  0  0  0  0
  1  5  1  0  0  0  0
  1  8  1  0  0  0  0
  1  9  1  0  0  0  0
  2  3  1  0  0  0  0
  2  6  1  0  0  0  0
  2 10  1  0  0  0  0
  3  4  1  0  0  0  0
  3 11  1  0  0  0  0
  4  5  1  0  0  0  0
  4 12  1  0  0  0  0
  4 13  1  0  0  0  0
  6  7  2  0  0  0  0
  6 14  1  0  0  0  0
M  END
$$$$
