
 OpenBabel05052217073D

 22 22  0  0  1  0  0  0  0  0999 V2000
    0.9793    1.2072    0.6112 C   0  0  0  0  0  0  0  0  0  0  0  0
    2.4566    1.1963    0.8870 C   0  0  0  0  0  0  0  0  0  0  0  0
    2.9221    1.1725    2.0209 O   0  0  0  0  0  0  0  0  0  0  0  0
    3.2344    1.2074   -0.2512 N   0  0  0  0  0  0  0  0  0  0  0  0
    4.6951    1.1326   -0.1555 C   0  0  0  0  0  0  0  0  0  0  0  0
    5.3688    2.5274   -0.1070 C   0  0  3  0  0  0  0  0  0  0  0  0
    5.1196    3.3166   -1.3265 N   0  0  0  0  0  0  0  0  0  0  0  0
    6.1341    2.9350   -2.3113 C   0  0  0  0  0  0  0  0  0  0  0  0
    7.4873    3.0269   -1.6212 C   0  0  0  0  0  0  0  0  0  0  0  0
    7.1790    2.3457    0.0251 S   0  0  0  0  0  0  0  0  0  0  0  0
    0.4351    1.1772    1.5582 H   0  0  0  0  0  0  0  0  0  0  0  0
    0.7040    0.3284    0.0215 H   0  0  0  0  0  0  0  0  0  0  0  0
    0.7022    2.1186    0.0735 H   0  0  0  0  0  0  0  0  0  0  0  0
    2.8013    1.3445   -1.1526 H   0  0  0  0  0  0  0  0  0  0  0  0
    5.0232    0.5564   -1.0270 H   0  0  0  0  0  0  0  0  0  0  0  0
    4.9558    0.5568    0.7380 H   0  0  0  0  0  0  0  0  0  0  0  0
    4.9987    3.0855    0.7597 H   0  0  0  0  0  0  0  0  0  0  0  0
    4.1809    3.1350   -1.6714 H   0  0  0  0  0  0  0  0  0  0  0  0
    6.0970    3.5992   -3.1804 H   0  0  0  0  0  0  0  0  0  0  0  0
    5.9544    1.9168   -2.6794 H   0  0  0  0  0  0  0  0  0  0  0  0
    7.8166    4.0667   -1.5268 H   0  0  0  0  0  0  0  0  0  0  0  0
    8.2561    2.4533   -2.1457 H   0  0  0  0  0  0  0  0  0  0  0  0
  1  2  1  0  0  0  0
  1 11  1  0  0  0  0
  1 12  1  0  0  0  0
  1 13  1  0  0  0  0
  2  3  2  0  0  0  0
  2  4  1  0  0  0  0
  4  5  1  0  0  0  0
  4 14  1  0  0  0  0
  5  6  1  0  0  0  0
  5 15  1  0  0  0  0
  5 16  1  0  0  0  0
  6  7  1  0  0  0  0
  6 10  1  0  0  0  0
  6 17  1  0  0  0  0
  7  8  1  0  0  0  0
  7 18  1  0  0  0  0
  8  9  1  0  0  0  0
  8 19  1  0  0  0  0
  8 20  1  0  0  0  0
  9 10  1  0  0  0  0
  9 21  1  0  0  0  0
  9 22  1  0  0  0  0
M  END
$$$$
