
 OpenBabel05052217073D

 23 23  0  0  1  0  0  0  0  0999 V2000
    0.8945    0.1023    0.0232 C   0  0  0  0  0  0  0  0  0  0  0  0
    2.4131    0.0101   -0.0099 C   0  0  3  0  0  0  0  0  0  0  0  0
    3.0320    0.9862    0.8910 N   0  0  0  0  0  0  0  0  0  0  0  0
    4.4131    0.5164    1.1889 C   0  0  3  0  0  0  0  0  0  0  0  0
    4.3909   -1.0035    1.4732 C   0  0  0  0  0  0  0  0  0  0  0  0
    2.9697   -1.6289    0.5053 S   0  0  0  0  0  0  0  0  0  0  0  0
    4.1058   -1.2674    2.9597 C   0  0  0  0  0  0  0  0  0  0  0  0
    5.6482   -1.7637    1.0470 C   0  0  0  0  0  0  0  0  0  0  0  0
    5.3607    0.9484    0.0764 C   0  0  0  0  0  0  0  0  0  0  0  0
    6.5530    1.1901    0.2685 O   0  0  0  0  0  0  0  0  0  0  0  0
    0.5627    1.0832   -0.3369 H   0  0  0  0  0  0  0  0  0  0  0  0
    0.4918   -0.0323    1.0340 H   0  0  0  0  0  0  0  0  0  0  0  0
    0.4370   -0.6530   -0.6267 H   0  0  0  0  0  0  0  0  0  0  0  0
    2.7534    0.1802   -1.0378 H   0  0  0  0  0  0  0  0  0  0  0  0
    2.5047    0.9671    1.7651 H   0  0  0  0  0  0  0  0  0  0  0  0
    4.7600    1.0605    2.0780 H   0  0  0  0  0  0  0  0  0  0  0  0
    3.2026   -0.7548    3.3099 H   0  0  0  0  0  0  0  0  0  0  0  0
    4.9397   -0.9080    3.5752 H   0  0  0  0  0  0  0  0  0  0  0  0
    3.9903   -2.3374    3.1685 H   0  0  0  0  0  0  0  0  0  0  0  0
    5.8412   -1.6784   -0.0290 H   0  0  0  0  0  0  0  0  0  0  0  0
    5.5666   -2.8330    1.2771 H   0  0  0  0  0  0  0  0  0  0  0  0
    6.5303   -1.3853    1.5748 H   0  0  0  0  0  0  0  0  0  0  0  0
    4.9523    0.9588   -0.9471 H   0  0  0  0  0  0  0  0  0  0  0  0
  1  2  1  0  0  0  0
  1 11  1  0  0  0  0
  1 12  1  0  0  0  0
  1 13  1  0  0  0  0
  2  3  1  0  0  0  0
  2  6  1  0  0  0  0
  2 14  1  0  0  0  0
  3  4  1  0  0  0  0
  3 15  1  0  0  0  0
  4  5  1  0  0  0  0
  4  9  1  0  0  0  0
  4 16  1  0  0  0  0
  5  6  1  0  0  0  0
  5  7  1  0  0  0  0
  5  8  1  0  0  0  0
  7 17  1  0  0  0  0
  7 18  1  0  0  0  0
  7 19  1  0  0  0  0
  8 20  1  0  0  0  0
  8 21  1  0  0  0  0
  8 22  1  0  0  0  0
  9 10  2  0  0  0  0
  9 23  1  0  0  0  0
M  END
$$$$
