
 OpenBabel05052217073D

 15 15  0  0  1  0  0  0  0  0999 V2000
    1.1716   -0.1131    0.2005 C   0  0  0  0  0  0  0  0  0  0  0  0
    2.6023   -0.1161    0.3414 N   0  0  0  0  0  0  0  0  0  0  0  0
    3.4855    0.9567   -0.1565 C   0  0  0  0  0  0  0  0  0  0  0  0
    4.4529   -0.1398   -0.6593 C   0  0  3  0  0  0  0  0  0  0  0  0
    3.3368   -1.1244   -0.2215 C   0  0  0  0  0  0  0  0  0  0  0  0
    3.0633   -2.2836   -0.4381 O   0  0  0  0  0  0  0  0  0  0  0  0
    4.6115   -0.0215   -2.1251 N   0  0  0  0  0  0  0  0  0  0  0  0
    0.7927    0.9042    0.3257 H   0  0  0  0  0  0  0  0  0  0  0  0
    0.7430   -0.7645    0.9655 H   0  0  0  0  0  0  0  0  0  0  0  0
    0.8932   -0.4964   -0.7871 H   0  0  0  0  0  0  0  0  0  0  0  0
    3.8777    1.5708    0.6604 H   0  0  0  0  0  0  0  0  0  0  0  0
    3.0064    1.5983   -0.9027 H   0  0  0  0  0  0  0  0  0  0  0  0
    5.3881   -0.2379   -0.1014 H   0  0  0  0  0  0  0  0  0  0  0  0
    3.7160    0.0558   -2.6127 H   0  0  0  0  0  0  0  0  0  0  0  0
    5.0332   -0.8627   -2.5233 H   0  0  0  0  0  0  0  0  0  0  0  0
  1  2  1  0  0  0  0
  1  8  1  0  0  0  0
  1  9  1  0  0  0  0
  1 10  1  0  0  0  0
  2  3  1  0  0  0  0
  2  5  1  0  0  0  0
  3  4  1  0  0  0  0
  3 11  1  0  0  0  0
  3 12  1  0  0  0  0
  4  5  1  0  0  0  0
  4  7  1  0  0  0  0
  4 13  1  0  0  0  0
  5  6  2  0  0  0  0
  7 14  1  0  0  0  0
  7 15  1  0  0  0  0
M  END
$$$$
