
 OpenBabel05052217073D

 17 17  0  0  1  0  0  0  0  0999 V2000
    1.3692    2.0860   -0.0321 C   0  0  0  0  0  0  0  0  0  0  0  0
    2.8548    1.8010    0.1026 C   0  0  0  0  0  0  0  0  0  0  0  0
    3.1932    0.9941    1.6945 S   0  0  0  0  0  0  0  0  0  0  0  0
    4.9756    0.7352    1.4477 C   0  0  3  0  0  0  0  0  0  0  0  0
    5.6568    0.0185    2.6279 C   0  0  0  0  0  0  0  0  0  0  0  0
    6.1778    1.4128    2.9903 C   0  0  0  0  0  0  0  0  0  0  0  0
    6.7041    1.9506    3.9331 O   0  0  0  0  0  0  0  0  0  0  0  0
    5.7074    1.9416    1.8270 N   0  0  0  0  0  0  0  0  0  0  0  0
    1.1745    2.6107   -0.9735 H   0  0  0  0  0  0  0  0  0  0  0  0
    1.0033    2.7212    0.7818 H   0  0  0  0  0  0  0  0  0  0  0  0
    0.7826    1.1609   -0.0428 H   0  0  0  0  0  0  0  0  0  0  0  0
    3.4184    2.7372    0.0467 H   0  0  0  0  0  0  0  0  0  0  0  0
    3.1822    1.1520   -0.7159 H   0  0  0  0  0  0  0  0  0  0  0  0
    5.2684    0.3567    0.4636 H   0  0  0  0  0  0  0  0  0  0  0  0
    6.4469   -0.6865    2.3538 H   0  0  0  0  0  0  0  0  0  0  0  0
    5.0117   -0.4260    3.3908 H   0  0  0  0  0  0  0  0  0  0  0  0
    5.3683    2.8920    1.8723 H   0  0  0  0  0  0  0  0  0  0  0  0
  1  2  1  0  0  0  0
  1  9  1  0  0  0  0
  1 10  1  0  0  0  0
  1 11  1  0  0  0  0
  2  3  1  0  0  0  0
  2 12  1  0  0  0  0
  2 13  1  0  0  0  0
  3  4  1  0  0  0  0
  4  5  1  0  0  0  0
  4  8  1  0  0  0  0
  4 14  1  0  0  0  0
  5  6  1  0  0  0  0
  5 15  1  0  0  0  0
  5 16  1  0  0  0  0
  6  7  2  0  0  0  0
  6  8  1  0  0  0  0
  8 17  1  0  0  0  0
M  END
$$$$
