
 OpenBabel05052217073D

 14 13  0  0  0  0  0  0  0  0999 V2000
    1.1013    0.0536   -0.1455 C   0  0  0  0  0  0  0  0  0  0  0  0
    2.5471    0.0353   -0.0548 N   0  0  0  0  0  0  0  0  0  0  0  0
    3.1907   -0.2144    1.2330 C   0  0  0  0  0  0  0  0  0  0  0  0
    3.4928   -1.6869    1.4324 C   0  0  0  0  0  0  0  0  0  0  0  0
    3.9337   -2.1433    2.4863 O   0  0  0  0  0  0  0  0  0  0  0  0
    3.3157    0.3112   -1.1651 C   0  0  0  0  0  0  0  0  0  0  0  0
    4.5394    0.3023   -1.1955 O   0  0  0  0  0  0  0  0  0  0  0  0
    0.6450   -0.2940    0.7844 H   0  0  0  0  0  0  0  0  0  0  0  0
    0.7856   -0.5879   -0.9740 H   0  0  0  0  0  0  0  0  0  0  0  0
    0.7810    1.0779   -0.3588 H   0  0  0  0  0  0  0  0  0  0  0  0
    2.5391    0.1356    2.0388 H   0  0  0  0  0  0  0  0  0  0  0  0
    4.1410    0.3279    1.2725 H   0  0  0  0  0  0  0  0  0  0  0  0
    3.3363   -2.3422    0.5611 H   0  0  0  0  0  0  0  0  0  0  0  0
    2.7116    0.5377   -2.0605 H   0  0  0  0  0  0  0  0  0  0  0  0
  1  2  1  0  0  0  0
  1  8  1  0  0  0  0
  1  9  1  0  0  0  0
  1 10  1  0  0  0  0
  2  3  1  0  0  0  0
  2  6  1  0  0  0  0
  3  4  1  0  0  0  0
  3 11  1  0  0  0  0
  3 12  1  0  0  0  0
  4  5  2  0  0  0  0
  4 13  1  0  0  0  0
  6  7  2  0  0  0  0
  6 14  1  0  0  0  0
M  END
$$$$
