
 OpenBabel05052217073D

 20 19  0  0  0  0  0  0  0  0999 V2000
    1.1413   -0.0109    0.0050 C   0  0  0  0  0  0  0  0  0  0  0  0
    2.6682    0.0726   -0.0264 C   0  0  0  0  0  0  0  0  0  0  0  0
    3.1708   -0.1156   -1.4540 C   0  0  0  0  0  0  0  0  0  0  0  0
    3.1378    1.7058    0.6675 S   0  0  0  0  0  0  0  0  0  0  0  0
    4.9592    1.6146    0.5951 C   0  0  0  0  0  0  0  0  0  0  0  0
    5.5270    2.9069    1.1665 C   0  0  0  0  0  0  0  0  0  0  0  0
    7.0293    2.9278    1.1281 C   0  0  0  0  0  0  0  0  0  0  0  0
    7.7215    2.0124    0.6929 O   0  0  0  0  0  0  0  0  0  0  0  0
    0.7984   -0.9708   -0.3970 H   0  0  0  0  0  0  0  0  0  0  0  0
    0.6798    0.7795   -0.5995 H   0  0  0  0  0  0  0  0  0  0  0  0
    0.7552    0.0698    1.0275 H   0  0  0  0  0  0  0  0  0  0  0  0
    3.0776   -0.7133    0.6179 H   0  0  0  0  0  0  0  0  0  0  0  0
    2.8357    0.6933   -2.1124 H   0  0  0  0  0  0  0  0  0  0  0  0
    2.7938   -1.0569   -1.8700 H   0  0  0  0  0  0  0  0  0  0  0  0
    4.2624   -0.1699   -1.4971 H   0  0  0  0  0  0  0  0  0  0  0  0
    5.2830    1.4999   -0.4440 H   0  0  0  0  0  0  0  0  0  0  0  0
    5.3093    0.7480    1.1674 H   0  0  0  0  0  0  0  0  0  0  0  0
    5.2300    3.0419    2.2113 H   0  0  0  0  0  0  0  0  0  0  0  0
    5.1828    3.7725    0.5907 H   0  0  0  0  0  0  0  0  0  0  0  0
    7.4980    3.8446    1.5239 H   0  0  0  0  0  0  0  0  0  0  0  0
  1  2  1  0  0  0  0
  1  9  1  0  0  0  0
  1 10  1  0  0  0  0
  1 11  1  0  0  0  0
  2  3  1  0  0  0  0
  2  4  1  0  0  0  0
  2 12  1  0  0  0  0
  3 13  1  0  0  0  0
  3 14  1  0  0  0  0
  3 15  1  0  0  0  0
  4  5  1  0  0  0  0
  5  6  1  0  0  0  0
  5 16  1  0  0  0  0
  5 17  1  0  0  0  0
  6  7  1  0  0  0  0
  6 18  1  0  0  0  0
  6 19  1  0  0  0  0
  7  8  2  0  0  0  0
  7 20  1  0  0  0  0
M  END
$$$$
