
 OpenBabel05052217073D

 22 21  0  0  0  0  0  0  0  0999 V2000
    1.1035    0.0777    0.0591 C   0  0  0  0  0  0  0  0  0  0  0  0
    2.6302    0.0410    0.1214 C   0  0  0  0  0  0  0  0  0  0  0  0
    3.1793    1.4414    0.3747 C   0  0  0  0  0  0  0  0  0  0  0  0
    3.1033   -1.1260    1.4562 S   0  0  0  0  0  0  0  0  0  0  0  0
    4.9203   -1.1115    1.2842 C   0  0  0  0  0  0  0  0  0  0  0  0
    5.5409   -2.1034    2.2732 C   0  0  0  0  0  0  0  0  0  0  0  0
    6.9937   -2.0795    2.2770 N   0  0  0  0  0  0  0  0  0  0  0  0
    7.7323   -2.4982    1.2021 C   0  0  0  0  0  0  0  0  0  0  0  0
    7.2819   -2.8626    0.1255 O   0  0  0  0  0  0  0  0  0  0  0  0
    0.7655    0.7724   -0.7181 H   0  0  0  0  0  0  0  0  0  0  0  0
    0.6672    0.4113    1.0081 H   0  0  0  0  0  0  0  0  0  0  0  0
    0.6886   -0.9072   -0.1828 H   0  0  0  0  0  0  0  0  0  0  0  0
    3.0121   -0.3404   -0.8329 H   0  0  0  0  0  0  0  0  0  0  0  0
    2.8846    1.8204    1.3594 H   0  0  0  0  0  0  0  0  0  0  0  0
    2.8000    2.1432   -0.3764 H   0  0  0  0  0  0  0  0  0  0  0  0
    4.2707    1.4681    0.3055 H   0  0  0  0  0  0  0  0  0  0  0  0
    5.2989   -0.1084    1.5020 H   0  0  0  0  0  0  0  0  0  0  0  0
    5.1859   -1.3640    0.2537 H   0  0  0  0  0  0  0  0  0  0  0  0
    5.2268   -3.1291    2.0458 H   0  0  0  0  0  0  0  0  0  0  0  0
    5.2311   -1.8681    3.2972 H   0  0  0  0  0  0  0  0  0  0  0  0
    7.4754   -1.8809    3.1443 H   0  0  0  0  0  0  0  0  0  0  0  0
    8.8149   -2.4664    1.4088 H   0  0  0  0  0  0  0  0  0  0  0  0
  1  2  1  0  0  0  0
  1 10  1  0  0  0  0
  1 11  1  0  0  0  0
  1 12  1  0  0  0  0
  2  3  1  0  0  0  0
  2  4  1  0  0  0  0
  2 13  1  0  0  0  0
  3 14  1  0  0  0  0
  3 15  1  0  0  0  0
  3 16  1  0  0  0  0
  4  5  1  0  0  0  0
  5  6  1  0  0  0  0
  5 17  1  0  0  0  0
  5 18  1  0  0  0  0
  6  7  1  0  0  0  0
  6 19  1  0  0  0  0
  6 20  1  0  0  0  0
  7  8  1  0  0  0  0
  7 21  1  0  0  0  0
  8  9  2  0  0  0  0
  8 22  1  0  0  0  0
M  END
$$$$
