
 OpenBabel05052217073D

 14 13  0  0  0  0  0  0  0  0999 V2000
    1.0662    0.0262   -0.0476 C   0  0  0  0  0  0  0  0  0  0  0  0
    0.5132   -0.4117    1.3162 C   0  0  0  0  0  0  0  0  0  0  0  0
   -0.9391   -0.4008    1.3578 N   0  0  0  0  0  0  0  0  0  0  0  0
   -1.6874   -1.4858    0.9860 C   0  0  0  0  0  0  0  0  0  0  0  0
   -1.2435   -2.5569    0.5983 O   0  0  0  0  0  0  0  0  0  0  0  0
    0.6410    1.3877   -0.3958 N   0  0  0  0  0  0  0  0  0  0  0  0
    0.7295   -0.6618   -0.8320 H   0  0  0  0  0  0  0  0  0  0  0  0
    2.1603   -0.0072   -0.0207 H   0  0  0  0  0  0  0  0  0  0  0  0
    0.8619    0.2633    2.1049 H   0  0  0  0  0  0  0  0  0  0  0  0
    0.8706   -1.4206    1.5493 H   0  0  0  0  0  0  0  0  0  0  0  0
   -1.4025    0.4646    1.6018 H   0  0  0  0  0  0  0  0  0  0  0  0
   -2.7674   -1.2888    1.0723 H   0  0  0  0  0  0  0  0  0  0  0  0
   -0.3727    1.3895   -0.4979 H   0  0  0  0  0  0  0  0  0  0  0  0
    1.0122    1.6198   -1.3177 H   0  0  0  0  0  0  0  0  0  0  0  0
  1  2  1  0  0  0  0
  1  6  1  0  0  0  0
  1  7  1  0  0  0  0
  1  8  1  0  0  0  0
  2  3  1  0  0  0  0
  2  9  1  0  0  0  0
  2 10  1  0  0  0  0
  3  4  1  0  0  0  0
  3 11  1  0  0  0  0
  4  5  2  0  0  0  0
  4 12  1  0  0  0  0
  6 13  1  0  0  0  0
  6 14  1  0  0  0  0
M  END
$$$$
