
 OpenBabel05052217073D

 15 15  0  0  0  0  0  0  0  0999 V2000
    0.6047    1.1134   -0.0295 C   0  0  0  0  0  0  0  0  0  0  0  0
    1.6248   -0.0444    0.0147 C   0  0  0  0  0  0  0  0  0  0  0  0
    0.5123   -0.9346   -0.3192 N   0  0  0  0  0  0  0  0  0  0  0  0
   -0.4504   -0.0097   -0.0606 C   0  0  0  0  0  0  0  0  0  0  0  0
   -1.6381   -0.1295    0.1183 O   0  0  0  0  0  0  0  0  0  0  0  0
    0.3659   -2.3358   -0.0367 C   0  0  0  0  0  0  0  0  0  0  0  0
    0.4093   -2.6951    1.4388 C   0  0  0  0  0  0  0  0  0  0  0  0
    1.0292   -2.0777    2.3003 O   0  0  0  0  0  0  0  0  0  0  0  0
    0.6229    1.7239   -0.9364 H   0  0  0  0  0  0  0  0  0  0  0  0
    0.5722    1.7440    0.8606 H   0  0  0  0  0  0  0  0  0  0  0  0
    2.0765   -0.2251    0.9925 H   0  0  0  0  0  0  0  0  0  0  0  0
    2.3966   -0.0154   -0.7584 H   0  0  0  0  0  0  0  0  0  0  0  0
    1.1552   -2.8880   -0.5546 H   0  0  0  0  0  0  0  0  0  0  0  0
   -0.6062   -2.6593   -0.4237 H   0  0  0  0  0  0  0  0  0  0  0  0
   -0.1045   -3.6376    1.6958 H   0  0  0  0  0  0  0  0  0  0  0  0
  1  2  1  0  0  0  0
  1  4  1  0  0  0  0
  1  9  1  0  0  0  0
  1 10  1  0  0  0  0
  2  3  1  0  0  0  0
  2 11  1  0  0  0  0
  2 12  1  0  0  0  0
  3  4  1  0  0  0  0
  3  6  1  0  0  0  0
  4  5  2  0  0  0  0
  6  7  1  0  0  0  0
  6 13  1  0  0  0  0
  6 14  1  0  0  0  0
  7  8  2  0  0  0  0
  7 15  1  0  0  0  0
M  END
$$$$
