
 OpenBabel05052217073D

 19 19  0  0  1  0  0  0  0  0999 V2000
    1.0308    0.1054    0.0491 C   0  0  0  0  0  0  0  0  0  0  0  0
    2.5511    0.0617   -0.0327 C   0  0  3  0  0  0  0  0  0  0  0  0
    3.0961    1.2706   -0.8082 C   0  0  0  0  0  0  0  0  0  0  0  0
    2.4978    2.3229   -0.9732 O   0  0  0  0  0  0  0  0  0  0  0  0
    4.3610    1.0861   -1.2676 O   0  0  0  0  0  0  0  0  0  0  0  0
    3.1425   -0.0344    1.2859 N   0  0  0  0  0  0  0  0  0  0  0  0
    3.0664    0.9507    2.3755 C   0  0  0  0  0  0  0  0  0  0  0  0
    4.4034    0.3609    2.8808 C   0  0  0  0  0  0  0  0  0  0  0  0
    4.4716   -0.2662    1.4692 C   0  0  0  0  0  0  0  0  0  0  0  0
    5.2916   -0.6521    0.6694 O   0  0  0  0  0  0  0  0  0  0  0  0
    0.5881    0.1301   -0.9522 H   0  0  0  0  0  0  0  0  0  0  0  0
    0.6817    0.9924    0.5894 H   0  0  0  0  0  0  0  0  0  0  0  0
    0.6458   -0.7757    0.5734 H   0  0  0  0  0  0  0  0  0  0  0  0
    2.8345   -0.8365   -0.5953 H   0  0  0  0  0  0  0  0  0  0  0  0
    4.7875    0.2573   -0.9409 H   0  0  0  0  0  0  0  0  0  0  0  0
    2.2083    0.8029    3.0354 H   0  0  0  0  0  0  0  0  0  0  0  0
    3.1151    1.9888    2.0318 H   0  0  0  0  0  0  0  0  0  0  0  0
    4.3198   -0.3764    3.6842 H   0  0  0  0  0  0  0  0  0  0  0  0
    5.1832    1.0897    3.1059 H   0  0  0  0  0  0  0  0  0  0  0  0
  1  2  1  0  0  0  0
  1 11  1  0  0  0  0
  1 12  1  0  0  0  0
  1 13  1  0  0  0  0
  2  3  1  0  0  0  0
  2  6  1  0  0  0  0
  2 14  1  0  0  0  0
  3  4  2  0  0  0  0
  3  5  1  0  0  0  0
  5 15  1  0  0  0  0
  6  7  1  0  0  0  0
  6  9  1  0  0  0  0
  7  8  1  0  0  0  0
  7 16  1  0  0  0  0
  7 17  1  0  0  0  0
  8  9  1  0  0  0  0
  8 18  1  0  0  0  0
  8 19  1  0  0  0  0
  9 10  2  0  0  0  0
M  END
$$$$
