
 OpenBabel05052217073D

 21 20  0  0  1  0  0  0  0  0999 V2000
    1.0426    0.3241   -0.0035 C   0  0  0  0  0  0  0  0  0  0  0  0
    2.5597    0.2666    0.0617 C   0  0  0  0  0  0  0  0  0  0  0  0
    3.1077    0.3525    1.7957 S   0  0  0  0  0  0  0  0  0  0  0  0
    4.9074    0.1424    1.5662 C   0  0  3  0  0  0  0  0  0  0  0  0
    5.5321    1.3527    0.8255 C   0  0  0  0  0  0  0  0  0  0  0  0
    6.9772    1.2508    0.6728 N   0  0  0  0  0  0  0  0  0  0  0  0
    7.5327    0.5679   -0.3768 C   0  0  0  0  0  0  0  0  0  0  0  0
    6.9063   -0.0067   -1.2538 O   0  0  0  0  0  0  0  0  0  0  0  0
    5.4807   -0.0084    2.9053 N   0  0  0  0  0  0  0  0  0  0  0  0
    0.7169    0.3324   -1.0489 H   0  0  0  0  0  0  0  0  0  0  0  0
    0.6536    1.2317    0.4701 H   0  0  0  0  0  0  0  0  0  0  0  0
    0.5865   -0.5462    0.4799 H   0  0  0  0  0  0  0  0  0  0  0  0
    2.9659    1.1156   -0.4934 H   0  0  0  0  0  0  0  0  0  0  0  0
    2.9185   -0.6609   -0.3943 H   0  0  0  0  0  0  0  0  0  0  0  0
    5.0946   -0.7842    1.0124 H   0  0  0  0  0  0  0  0  0  0  0  0
    5.3426    2.2851    1.3688 H   0  0  0  0  0  0  0  0  0  0  0  0
    5.1052    1.4507   -0.1773 H   0  0  0  0  0  0  0  0  0  0  0  0
    7.5823    1.6896    1.3550 H   0  0  0  0  0  0  0  0  0  0  0  0
    8.6350    0.5969   -0.3525 H   0  0  0  0  0  0  0  0  0  0  0  0
    5.1150    0.7400    3.4915 H   0  0  0  0  0  0  0  0  0  0  0  0
    6.4897    0.1073    2.8495 H   0  0  0  0  0  0  0  0  0  0  0  0
  1  2  1  0  0  0  0
  1 10  1  0  0  0  0
  1 11  1  0  0  0  0
  1 12  1  0  0  0  0
  2  3  1  0  0  0  0
  2 13  1  0  0  0  0
  2 14  1  0  0  0  0
  3  4  1  0  0  0  0
  4  5  1  0  0  0  0
  4  9  1  0  0  0  0
  4 15  1  0  0  0  0
  5  6  1  0  0  0  0
  5 16  1  0  0  0  0
  5 17  1  0  0  0  0
  6  7  1  0  0  0  0
  6 18  1  0  0  0  0
  7  8  2  0  0  0  0
  7 19  1  0  0  0  0
  9 20  1  0  0  0  0
  9 21  1  0  0  0  0
M  END
$$$$
