
 OpenBabel05052217073D

 14 14  0  0  1  0  0  0  0  0999 V2000
    1.6232   -0.0388    0.0348 C   0  0  0  0  0  0  0  0  0  0  0  0
    0.6426    1.1643   -0.0234 C   0  0  3  0  0  0  0  0  0  0  0  0
   -0.4574    0.0664   -0.0291 C   0  0  0  0  0  0  0  0  0  0  0  0
   -1.6633    0.0124   -0.0145 O   0  0  0  0  0  0  0  0  0  0  0  0
    0.4703   -0.9197   -0.0902 N   0  0  0  0  0  0  0  0  0  0  0  0
    0.7005    2.0030   -1.2465 N   0  0  0  0  0  0  0  0  0  0  0  0
    1.8437    2.6532   -1.6239 C   0  0  0  0  0  0  0  0  0  0  0  0
    2.9081    2.6082   -1.0209 O   0  0  0  0  0  0  0  0  0  0  0  0
    2.1564   -0.1590    0.9800 H   0  0  0  0  0  0  0  0  0  0  0  0
    2.3153   -0.1521   -0.8048 H   0  0  0  0  0  0  0  0  0  0  0  0
    0.6266    1.7782    0.8837 H   0  0  0  0  0  0  0  0  0  0  0  0
    0.3062   -1.8997    0.0728 H   0  0  0  0  0  0  0  0  0  0  0  0
   -0.1305    2.1194   -1.8155 H   0  0  0  0  0  0  0  0  0  0  0  0
    1.7077    3.2304   -2.5528 H   0  0  0  0  0  0  0  0  0  0  0  0
  1  2  1  0  0  0  0
  1  5  1  0  0  0  0
  1  9  1  0  0  0  0
  1 10  1  0  0  0  0
  2  3  1  0  0  0  0
  2  6  1  0  0  0  0
  2 11  1  0  0  0  0
  3  4  2  0  0  0  0
  3  5  1  0  0  0  0
  5 12  1  0  0  0  0
  6  7  1  0  0  0  0
  6 13  1  0  0  0  0
  7  8  2  0  0  0  0
  7 14  1  0  0  0  0
M  END
$$$$
