
 OpenBabel05052217073D

 18 17  0  0  1  0  0  0  0  0999 V2000
    3.6536    1.4719   -0.9980 C   0  0  0  0  0  0  0  0  0  0  0  0
    2.8572    0.2453    0.0702 S   0  0  0  0  0  0  0  0  0  0  0  0
    3.4777   -1.2992   -0.7006 C   0  0  0  0  0  0  0  0  0  0  0  0
    5.0028   -1.4804   -0.6909 C   0  0  3  0  0  0  0  0  0  0  0  0
    5.5577   -1.5109    0.7303 C   0  0  0  0  0  0  0  0  0  0  0  0
    6.4694   -2.2617    1.0801 O   0  0  0  0  0  0  0  0  0  0  0  0
    5.4099   -2.7402   -1.3150 N   0  0  0  0  0  0  0  0  0  0  0  0
    5.2850   -2.9716   -2.6556 C   0  0  0  0  0  0  0  0  0  0  0  0
    4.7609   -2.2053   -3.4508 O   0  0  0  0  0  0  0  0  0  0  0  0
    3.2301    2.4568   -0.7834 H   0  0  0  0  0  0  0  0  0  0  0  0
    3.4838    1.2406   -2.0522 H   0  0  0  0  0  0  0  0  0  0  0  0
    4.7261    1.5131   -0.7923 H   0  0  0  0  0  0  0  0  0  0  0  0
    3.0841   -1.3315   -1.7220 H   0  0  0  0  0  0  0  0  0  0  0  0
    3.0061   -2.1301   -0.1629 H   0  0  0  0  0  0  0  0  0  0  0  0
    5.4947   -0.6668   -1.2344 H   0  0  0  0  0  0  0  0  0  0  0  0
    5.1613   -0.7595    1.4323 H   0  0  0  0  0  0  0  0  0  0  0  0
    6.0011   -3.3614   -0.7669 H   0  0  0  0  0  0  0  0  0  0  0  0
    5.7077   -3.9450   -2.9526 H   0  0  0  0  0  0  0  0  0  0  0  0
  1  2  1  0  0  0  0
  1 10  1  0  0  0  0
  1 11  1  0  0  0  0
  1 12  1  0  0  0  0
  2  3  1  0  0  0  0
  3  4  1  0  0  0  0
  3 13  1  0  0  0  0
  3 14  1  0  0  0  0
  4  5  1  0  0  0  0
  4  7  1  0  0  0  0
  4 15  1  0  0  0  0
  5  6  2  0  0  0  0
  5 16  1  0  0  0  0
  7  8  1  0  0  0  0
  7 17  1  0  0  0  0
  8  9  2  0  0  0  0
  8 18  1  0  0  0  0
M  END
$$$$
