
 OpenBabel05052217073D

 21 21  0  0  1  0  0  0  0  0999 V2000
    2.8276   -1.1068    1.4480 C   0  0  0  0  0  0  0  0  0  0  0  0
    2.5679   -1.6456    0.0487 C   0  0  0  0  0  0  0  0  0  0  0  0
    3.2656   -0.8144   -1.0233 C   0  0  0  0  0  0  0  0  0  0  0  0
    4.7054   -0.8379   -0.8931 N   0  0  0  0  0  0  0  0  0  0  0  0
    5.5983    0.2333   -1.3740 C   0  0  0  0  0  0  0  0  0  0  0  0
    6.5577   -0.8629   -1.8896 C   0  0  3  0  0  0  0  0  0  0  0  0
    5.4464   -1.8499   -1.4422 C   0  0  0  0  0  0  0  0  0  0  0  0
    5.1803   -3.0116   -1.6478 O   0  0  0  0  0  0  0  0  0  0  0  0
    6.6965   -0.7479   -3.3576 N   0  0  0  0  0  0  0  0  0  0  0  0
    2.2711   -1.6896    2.1874 H   0  0  0  0  0  0  0  0  0  0  0  0
    2.5124   -0.0614    1.5286 H   0  0  0  0  0  0  0  0  0  0  0  0
    3.8905   -1.1652    1.7037 H   0  0  0  0  0  0  0  0  0  0  0  0
    1.4886   -1.6340   -0.1423 H   0  0  0  0  0  0  0  0  0  0  0  0
    2.8934   -2.6908   -0.0033 H   0  0  0  0  0  0  0  0  0  0  0  0
    2.9339    0.2279   -0.9694 H   0  0  0  0  0  0  0  0  0  0  0  0
    3.0022   -1.2036   -2.0148 H   0  0  0  0  0  0  0  0  0  0  0  0
    5.9912    0.8308   -0.5447 H   0  0  0  0  0  0  0  0  0  0  0  0
    5.1289    0.8909   -2.1122 H   0  0  0  0  0  0  0  0  0  0  0  0
    7.5002   -0.9626   -1.3435 H   0  0  0  0  0  0  0  0  0  0  0  0
    5.7905   -0.6831   -3.8294 H   0  0  0  0  0  0  0  0  0  0  0  0
    7.1169   -1.5881   -3.7588 H   0  0  0  0  0  0  0  0  0  0  0  0
  1  2  1  0  0  0  0
  1 10  1  0  0  0  0
  1 11  1  0  0  0  0
  1 12  1  0  0  0  0
  2  3  1  0  0  0  0
  2 13  1  0  0  0  0
  2 14  1  0  0  0  0
  3  4  1  0  0  0  0
  3 15  1  0  0  0  0
  3 16  1  0  0  0  0
  4  5  1  0  0  0  0
  4  7  1  0  0  0  0
  5  6  1  0  0  0  0
  5 17  1  0  0  0  0
  5 18  1  0  0  0  0
  6  7  1  0  0  0  0
  6  9  1  0  0  0  0
  6 19  1  0  0  0  0
  7  8  2  0  0  0  0
  9 20  1  0  0  0  0
  9 21  1  0  0  0  0
M  END
$$$$
