
 OpenBabel05052217073D

  9  8  0  0  0  0  0  0  0  0999 V2000
    1.0745   -0.0561    0.0489 C   0  0  0  0  0  0  0  0  0  0  0  0
    0.5299   -0.9189   -1.0677 C   0  0  0  0  0  0  0  0  0  0  0  0
   -0.2061   -1.8846   -0.8798 O   0  0  0  0  0  0  0  0  0  0  0  0
    2.5379   -0.0946    0.0245 N   0  0  0  0  0  0  0  0  0  0  0  0
    0.6990   -0.4204    1.0099 H   0  0  0  0  0  0  0  0  0  0  0  0
    0.7202    0.9668   -0.1062 H   0  0  0  0  0  0  0  0  0  0  0  0
    0.8157   -0.6137   -2.0889 H   0  0  0  0  0  0  0  0  0  0  0  0
    2.8458   -1.0380    0.2680 H   0  0  0  0  0  0  0  0  0  0  0  0
    2.8960    0.5068    0.7668 H   0  0  0  0  0  0  0  0  0  0  0  0
  1  2  1  0  0  0  0
  1  4  1  0  0  0  0
  1  5  1  0  0  0  0
  1  6  1  0  0  0  0
  2  3  2  0  0  0  0
  2  7  1  0  0  0  0
  4  8  1  0  0  0  0
  4  9  1  0  0  0  0
M  END
$$$$
