
 OpenBabel05052217073D

 24 23  0  0  1  0  0  0  0  0999 V2000
    0.9981   -0.1767   -0.0779 C   0  0  0  0  0  0  0  0  0  0  0  0
    2.5176   -0.1096   -0.0214 C   0  0  0  0  0  0  0  0  0  0  0  0
    3.0625   -0.1918   -1.3815 N   0  0  0  0  0  0  0  0  0  0  0  0
    4.5423   -0.1213   -1.4097 C   0  0  3  0  0  0  0  0  0  0  0  0
    5.1040   -1.2996   -0.6144 C   0  0  0  0  0  0  0  0  0  0  0  0
    5.8446   -1.1699    0.3566 O   0  0  0  0  0  0  0  0  0  0  0  0
    5.0708   -0.1867   -2.8696 C   0  0  0  0  0  0  0  0  0  0  0  0
    4.5536    0.9714   -3.7354 C   0  0  0  0  0  0  0  0  0  0  0  0
    6.6059   -0.1708   -2.9167 C   0  0  0  0  0  0  0  0  0  0  0  0
    0.5827   -0.1461    0.9346 H   0  0  0  0  0  0  0  0  0  0  0  0
    0.6606   -1.1055   -0.5509 H   0  0  0  0  0  0  0  0  0  0  0  0
    0.5823    0.6660   -0.6400 H   0  0  0  0  0  0  0  0  0  0  0  0
    2.8686   -0.9446    0.5936 H   0  0  0  0  0  0  0  0  0  0  0  0
    2.8235    0.8258    0.4603 H   0  0  0  0  0  0  0  0  0  0  0  0
    2.6842    0.5898   -1.9173 H   0  0  0  0  0  0  0  0  0  0  0  0
    4.8806    0.8097   -0.9382 H   0  0  0  0  0  0  0  0  0  0  0  0
    4.7984   -2.3020   -0.9637 H   0  0  0  0  0  0  0  0  0  0  0  0
    4.7385   -1.1276   -3.3292 H   0  0  0  0  0  0  0  0  0  0  0  0
    4.8241    1.9396   -3.3012 H   0  0  0  0  0  0  0  0  0  0  0  0
    3.4665    0.9388   -3.8537 H   0  0  0  0  0  0  0  0  0  0  0  0
    4.9831    0.9236   -4.7423 H   0  0  0  0  0  0  0  0  0  0  0  0
    7.0076    0.7379   -2.4577 H   0  0  0  0  0  0  0  0  0  0  0  0
    6.9611   -0.2100   -3.9536 H   0  0  0  0  0  0  0  0  0  0  0  0
    7.0350   -1.0349   -2.3993 H   0  0  0  0  0  0  0  0  0  0  0  0
  1  2  1  0  0  0  0
  1 10  1  0  0  0  0
  1 11  1  0  0  0  0
  1 12  1  0  0  0  0
  2  3  1  0  0  0  0
  2 13  1  0  0  0  0
  2 14  1  0  0  0  0
  3  4  1  0  0  0  0
  3 15  1  0  0  0  0
  4  5  1  0  0  0  0
  4  7  1  0  0  0  0
  4 16  1  0  0  0  0
  5  6  2  0  0  0  0
  5 17  1  0  0  0  0
  7  8  1  0  0  0  0
  7  9  1  0  0  0  0
  7 18  1  0  0  0  0
  8 19  1  0  0  0  0
  8 20  1  0  0  0  0
  8 21  1  0  0  0  0
  9 22  1  0  0  0  0
  9 23  1  0  0  0  0
  9 24  1  0  0  0  0
M  END
$$$$
