
 OpenBabel05052217073D

 21 20  0  0  0  0  0  0  0  0999 V2000
    2.8441    1.4151   -0.2395 C   0  0  0  0  0  0  0  0  0  0  0  0
    2.5927   -0.0717    0.0110 C   0  0  0  0  0  0  0  0  0  0  0  0
    1.0845   -0.3145    0.1290 C   0  0  0  0  0  0  0  0  0  0  0  0
    3.1713   -0.9707   -1.0976 C   0  0  0  0  0  0  0  0  0  0  0  0
    4.6278   -0.9397   -1.2142 N   0  0  0  0  0  0  0  0  0  0  0  0
    5.2565   -0.0030   -2.1240 C   0  0  0  0  0  0  0  0  0  0  0  0
    5.4040   -1.6715   -0.3362 C   0  0  0  0  0  0  0  0  0  0  0  0
    4.9904   -2.4177    0.5390 O   0  0  0  0  0  0  0  0  0  0  0  0
    2.3793    2.0226    0.5450 H   0  0  0  0  0  0  0  0  0  0  0  0
    2.4290    1.7323   -1.2019 H   0  0  0  0  0  0  0  0  0  0  0  0
    3.9121    1.6464   -0.2312 H   0  0  0  0  0  0  0  0  0  0  0  0
    3.0563   -0.3387    0.9690 H   0  0  0  0  0  0  0  0  0  0  0  0
    0.5644   -0.0281   -0.7922 H   0  0  0  0  0  0  0  0  0  0  0  0
    0.6586    0.2695    0.9516 H   0  0  0  0  0  0  0  0  0  0  0  0
    0.8702   -1.3706    0.3239 H   0  0  0  0  0  0  0  0  0  0  0  0
    2.7349   -0.7270   -2.0737 H   0  0  0  0  0  0  0  0  0  0  0  0
    2.8919   -2.0096   -0.8816 H   0  0  0  0  0  0  0  0  0  0  0  0
    4.5582    0.3076   -2.9048 H   0  0  0  0  0  0  0  0  0  0  0  0
    6.1267   -0.4795   -2.5869 H   0  0  0  0  0  0  0  0  0  0  0  0
    5.6039    0.8660   -1.5595 H   0  0  0  0  0  0  0  0  0  0  0  0
    6.4853   -1.5266   -0.5077 H   0  0  0  0  0  0  0  0  0  0  0  0
  1  2  1  0  0  0  0
  1  9  1  0  0  0  0
  1 10  1  0  0  0  0
  1 11  1  0  0  0  0
  2  3  1  0  0  0  0
  2  4  1  0  0  0  0
  2 12  1  0  0  0  0
  3 13  1  0  0  0  0
  3 14  1  0  0  0  0
  3 15  1  0  0  0  0
  4  5  1  0  0  0  0
  4 16  1  0  0  0  0
  4 17  1  0  0  0  0
  5  6  1  0  0  0  0
  5  7  1  0  0  0  0
  6 18  1  0  0  0  0
  6 19  1  0  0  0  0
  6 20  1  0  0  0  0
  7  8  2  0  0  0  0
  7 21  1  0  0  0  0
M  END
$$$$
