
 OpenBabel05052217073D

 16 15  0  0  0  0  0  0  0  0999 V2000
    1.1555    0.0339   -0.1482 C   0  0  0  0  0  0  0  0  0  0  0  0
    2.6560    0.1051   -0.0454 C   0  0  0  0  0  0  0  0  0  0  0  0
    3.2328    0.9227    0.6622 O   0  0  0  0  0  0  0  0  0  0  0  0
    3.3046   -0.8297   -0.8167 N   0  0  0  0  0  0  0  0  0  0  0  0
    4.7517   -0.9349   -0.8307 C   0  0  0  0  0  0  0  0  0  0  0  0
    5.3027   -1.8368    0.2765 C   0  0  0  0  0  0  0  0  0  0  0  0
    4.7090   -3.5515    0.0985 S   0  0  0  0  0  0  0  0  0  0  0  0
    0.7098    0.8181    0.4716 H   0  0  0  0  0  0  0  0  0  0  0  0
    0.8056   -0.9393    0.2071 H   0  0  0  0  0  0  0  0  0  0  0  0
    0.8464    0.1861   -1.1851 H   0  0  0  0  0  0  0  0  0  0  0  0
    2.7655   -1.5460   -1.2903 H   0  0  0  0  0  0  0  0  0  0  0  0
    5.1774    0.0688   -0.7153 H   0  0  0  0  0  0  0  0  0  0  0  0
    5.0447   -1.3039   -1.8187 H   0  0  0  0  0  0  0  0  0  0  0  0
    5.0037   -1.4705    1.2636 H   0  0  0  0  0  0  0  0  0  0  0  0
    6.3963   -1.8494    0.2343 H   0  0  0  0  0  0  0  0  0  0  0  0
    3.4091   -3.2684    0.2629 H   0  0  0  0  0  0  0  0  0  0  0  0
  1  2  1  0  0  0  0
  1  8  1  0  0  0  0
  1  9  1  0  0  0  0
  1 10  1  0  0  0  0
  2  3  2  0  0  0  0
  2  4  1  0  0  0  0
  4  5  1  0  0  0  0
  4 11  1  0  0  0  0
  5  6  1  0  0  0  0
  5 12  1  0  0  0  0
  5 13  1  0  0  0  0
  6  7  1  0  0  0  0
  6 14  1  0  0  0  0
  6 15  1  0  0  0  0
  7 16  1  0  0  0  0
M  END
$$$$
