
 OpenBabel05052217073D

 15 14  0  0  1  0  0  0  0  0999 V2000
    0.9672   -0.0321    0.0246 C   0  0  0  0  0  0  0  0  0  0  0  0
    0.3992    0.7418   -1.1686 C   0  0  3  0  0  0  0  0  0  0  0  0
    0.9039    0.1291   -2.4691 C   0  0  0  0  0  0  0  0  0  0  0  0
    2.0122   -0.3887   -2.5938 O   0  0  0  0  0  0  0  0  0  0  0  0
   -1.0645    0.7419   -1.1898 N   0  0  0  0  0  0  0  0  0  0  0  0
   -1.7837    1.7530   -1.7661 C   0  0  0  0  0  0  0  0  0  0  0  0
   -1.2968    2.6942   -2.3750 O   0  0  0  0  0  0  0  0  0  0  0  0
    0.3957    0.6484    1.6197 S   0  0  0  0  0  0  0  0  0  0  0  0
    2.0619   -0.0128    0.0188 H   0  0  0  0  0  0  0  0  0  0  0  0
    0.6556   -1.0820   -0.0165 H   0  0  0  0  0  0  0  0  0  0  0  0
    0.7447    1.7830   -1.1607 H   0  0  0  0  0  0  0  0  0  0  0  0
    0.2678    0.2872   -3.3564 H   0  0  0  0  0  0  0  0  0  0  0  0
   -1.5620    0.0423   -0.6488 H   0  0  0  0  0  0  0  0  0  0  0  0
   -2.8697    1.6198   -1.6350 H   0  0  0  0  0  0  0  0  0  0  0  0
    0.9129    1.8770    1.4589 H   0  0  0  0  0  0  0  0  0  0  0  0
  1  2  1  0  0  0  0
  1  8  1  0  0  0  0
  1  9  1  0  0  0  0
  1 10  1  0  0  0  0
  2  3  1  0  0  0  0
  2  5  1  0  0  0  0
  2 11  1  0  0  0  0
  3  4  2  0  0  0  0
  3 12  1  0  0  0  0
  5  6  1  0  0  0  0
  5 13  1  0  0  0  0
  6  7  2  0  0  0  0
  6 14  1  0  0  0  0
  8 15  1  0  0  0  0
M  END
$$$$
