
 OpenBabel05052217073D

 19 18  0  0  0  0  0  0  0  0999 V2000
    1.0516   -0.0339   -0.0591 C   0  0  0  0  0  0  0  0  0  0  0  0
    2.5725   -0.0652   -0.0450 C   0  0  0  0  0  0  0  0  0  0  0  0
    3.0886   -1.2449    0.7797 C   0  0  0  0  0  0  0  0  0  0  0  0
    4.5520   -1.2557    0.7784 N   0  0  0  0  0  0  0  0  0  0  0  0
    5.0634   -2.3771    1.5656 C   0  0  0  0  0  0  0  0  0  0  0  0
    6.5837   -2.3695    1.5550 C   0  0  0  0  0  0  0  0  0  0  0  0
    0.6935    0.8132   -0.6518 H   0  0  0  0  0  0  0  0  0  0  0  0
    0.6532    0.0680    0.9556 H   0  0  0  0  0  0  0  0  0  0  0  0
    0.6452   -0.9515   -0.4964 H   0  0  0  0  0  0  0  0  0  0  0  0
    2.9462    0.8794    0.3687 H   0  0  0  0  0  0  0  0  0  0  0  0
    2.9396   -0.1364   -1.0761 H   0  0  0  0  0  0  0  0  0  0  0  0
    2.7085   -2.1790    0.3501 H   0  0  0  0  0  0  0  0  0  0  0  0
    2.7120   -1.1645    1.8064 H   0  0  0  0  0  0  0  0  0  0  0  0
    4.9020   -0.3786    1.1621 H   0  0  0  0  0  0  0  0  0  0  0  0
    4.7107   -3.3261    1.1457 H   0  0  0  0  0  0  0  0  0  0  0  0
    4.7117   -2.3111    2.6019 H   0  0  0  0  0  0  0  0  0  0  0  0
    6.9730   -2.4598    0.5354 H   0  0  0  0  0  0  0  0  0  0  0  0
    6.9674   -3.2130    2.1381 H   0  0  0  0  0  0  0  0  0  0  0  0
    6.9799   -1.4481    1.9947 H   0  0  0  0  0  0  0  0  0  0  0  0
  1  2  1  0  0  0  0
  1  7  1  0  0  0  0
  1  8  1  0  0  0  0
  1  9  1  0  0  0  0
  2  3  1  0  0  0  0
  2 10  1  0  0  0  0
  2 11  1  0  0  0  0
  3  4  1  0  0  0  0
  3 12  1  0  0  0  0
  3 13  1  0  0  0  0
  4  5  1  0  0  0  0
  4 14  1  0  0  0  0
  5  6  1  0  0  0  0
  5 15  1  0  0  0  0
  5 16  1  0  0  0  0
  6 17  1  0  0  0  0
  6 18  1  0  0  0  0
  6 19  1  0  0  0  0
M  END
$$$$
