
 OpenBabel05052217073D

 24 23  0  0  0  0  0  0  0  0999 V2000
    0.9405    0.0529    0.0350 C   0  0  0  0  0  0  0  0  0  0  0  0
    2.4596    0.1007    0.0535 C   0  0  0  0  0  0  0  0  0  0  0  0
    3.0364    1.6534    0.8283 S   0  0  0  0  0  0  0  0  0  0  0  0
    4.9018    1.4749    0.7349 C   0  0  0  0  0  0  0  0  0  0  0  0
    5.3131    0.2189    1.5155 C   0  0  0  0  0  0  0  0  0  0  0  0
    5.3104    1.3964   -0.7427 C   0  0  0  0  0  0  0  0  0  0  0  0
    5.4696    2.7535    1.4008 C   0  0  0  0  0  0  0  0  0  0  0  0
    6.9843    2.8496    1.4507 C   0  0  0  0  0  0  0  0  0  0  0  0
    7.7751    2.0256    1.0209 O   0  0  0  0  0  0  0  0  0  0  0  0
    7.4054    3.9892    2.0455 O   0  0  0  0  0  0  0  0  0  0  0  0
    0.6071   -0.8817   -0.4300 H   0  0  0  0  0  0  0  0  0  0  0  0
    0.5175    0.8790   -0.5460 H   0  0  0  0  0  0  0  0  0  0  0  0
    0.5237    0.0836    1.0471 H   0  0  0  0  0  0  0  0  0  0  0  0
    2.8240    0.0364   -0.9744 H   0  0  0  0  0  0  0  0  0  0  0  0
    2.8264   -0.7591    0.6187 H   0  0  0  0  0  0  0  0  0  0  0  0
    4.9367   -0.6980    1.0532 H   0  0  0  0  0  0  0  0  0  0  0  0
    4.9514    0.2545    2.5502 H   0  0  0  0  0  0  0  0  0  0  0  0
    6.3991    0.1017    1.5598 H   0  0  0  0  0  0  0  0  0  0  0  0
    4.9306    0.4942   -1.2302 H   0  0  0  0  0  0  0  0  0  0  0  0
    6.3965    1.3643   -0.8654 H   0  0  0  0  0  0  0  0  0  0  0  0
    4.9501    2.2666   -1.3048 H   0  0  0  0  0  0  0  0  0  0  0  0
    5.1186    2.8190    2.4395 H   0  0  0  0  0  0  0  0  0  0  0  0
    5.1185    3.6419    0.8588 H   0  0  0  0  0  0  0  0  0  0  0  0
    6.6802    4.5685    2.3478 H   0  0  0  0  0  0  0  0  0  0  0  0
  1  2  1  0  0  0  0
  1 11  1  0  0  0  0
  1 12  1  0  0  0  0
  1 13  1  0  0  0  0
  2  3  1  0  0  0  0
  2 14  1  0  0  0  0
  2 15  1  0  0  0  0
  3  4  1  0  0  0  0
  4  5  1  0  0  0  0
  4  6  1  0  0  0  0
  4  7  1  0  0  0  0
  5 16  1  0  0  0  0
  5 17  1  0  0  0  0
  5 18  1  0  0  0  0
  6 19  1  0  0  0  0
  6 20  1  0  0  0  0
  6 21  1  0  0  0  0
  7  8  1  0  0  0  0
  7 22  1  0  0  0  0
  7 23  1  0  0  0  0
  8  9  2  0  0  0  0
  8 10  1  0  0  0  0
 10 24  1  0  0  0  0
M  END
$$$$
