
 OpenBabel05052217073D

 18 17  0  0  0  0  0  0  0  0999 V2000
    0.9325   -0.0590    0.0720 C   0  0  0  0  0  0  0  0  0  0  0  0
    2.4622   -0.0247    0.0776 C   0  0  0  0  0  0  0  0  0  0  0  0
    2.9583    1.0035   -0.9412 C   0  0  0  0  0  0  0  0  0  0  0  0
    3.0136    0.3008    1.4751 C   0  0  0  0  0  0  0  0  0  0  0  0
    2.6269   -0.6814    2.4671 N   0  0  0  0  0  0  0  0  0  0  0  0
    3.3604   -1.8133    2.7051 C   0  0  0  0  0  0  0  0  0  0  0  0
    4.4160   -2.1101    2.1647 O   0  0  0  0  0  0  0  0  0  0  0  0
    0.5538   -0.2977   -0.9278 H   0  0  0  0  0  0  0  0  0  0  0  0
    0.5133    0.9077    0.3713 H   0  0  0  0  0  0  0  0  0  0  0  0
    0.5488   -0.8220    0.7572 H   0  0  0  0  0  0  0  0  0  0  0  0
    2.8262   -1.0138   -0.2283 H   0  0  0  0  0  0  0  0  0  0  0  0
    2.6254    2.0143   -0.6799 H   0  0  0  0  0  0  0  0  0  0  0  0
    2.5781    0.7728   -1.9421 H   0  0  0  0  0  0  0  0  0  0  0  0
    4.0516    1.0088   -0.9919 H   0  0  0  0  0  0  0  0  0  0  0  0
    2.6408    1.2708    1.8230 H   0  0  0  0  0  0  0  0  0  0  0  0
    4.1080    0.3539    1.4436 H   0  0  0  0  0  0  0  0  0  0  0  0
    1.7303   -0.5856    2.9266 H   0  0  0  0  0  0  0  0  0  0  0  0
    2.8874   -2.4577    3.4647 H   0  0  0  0  0  0  0  0  0  0  0  0
  1  2  1  0  0  0  0
  1  8  1  0  0  0  0
  1  9  1  0  0  0  0
  1 10  1  0  0  0  0
  2  3  1  0  0  0  0
  2  4  1  0  0  0  0
  2 11  1  0  0  0  0
  3 12  1  0  0  0  0
  3 13  1  0  0  0  0
  3 14  1  0  0  0  0
  4  5  1  0  0  0  0
  4 15  1  0  0  0  0
  4 16  1  0  0  0  0
  5  6  1  0  0  0  0
  5 17  1  0  0  0  0
  6  7  2  0  0  0  0
  6 18  1  0  0  0  0
M  END
$$$$
