
 OpenBabel05052217073D

 21 20  0  0  1  0  0  0  0  0999 V2000
    2.8558    1.4390   -0.4389 C   0  0  0  0  0  0  0  0  0  0  0  0
    2.3813    0.0514    0.0059 C   0  0  0  0  0  0  0  0  0  0  0  0
    0.8494    0.0194    0.0748 C   0  0  0  0  0  0  0  0  0  0  0  0
    2.9437   -1.1056   -0.8616 C   0  0  3  0  0  0  0  0  0  0  0  0
    2.4418   -0.9932   -2.3076 C   0  0  0  0  0  0  0  0  0  0  0  0
    3.0067   -0.3642   -3.2000 O   0  0  0  0  0  0  0  0  0  0  0  0
    4.4152   -1.2012   -0.9103 N   0  0  0  0  0  0  0  0  0  0  0  0
    5.0441   -1.4287    0.3763 C   0  0  0  0  0  0  0  0  0  0  0  0
    2.4553    2.2128    0.2262 H   0  0  0  0  0  0  0  0  0  0  0  0
    2.5266    1.6763   -1.4553 H   0  0  0  0  0  0  0  0  0  0  0  0
    3.9468    1.5176   -0.4040 H   0  0  0  0  0  0  0  0  0  0  0  0
    2.7267   -0.0925    1.0368 H   0  0  0  0  0  0  0  0  0  0  0  0
    0.3908    0.1709   -0.9072 H   0  0  0  0  0  0  0  0  0  0  0  0
    0.4786    0.8080    0.7390 H   0  0  0  0  0  0  0  0  0  0  0  0
    0.5015   -0.9389    0.4736 H   0  0  0  0  0  0  0  0  0  0  0  0
    2.5596   -2.0634   -0.4870 H   0  0  0  0  0  0  0  0  0  0  0  0
    1.4691   -1.4784   -2.5004 H   0  0  0  0  0  0  0  0  0  0  0  0
    4.7930   -0.3703   -1.3672 H   0  0  0  0  0  0  0  0  0  0  0  0
    4.7138   -2.3754    0.8132 H   0  0  0  0  0  0  0  0  0  0  0  0
    4.8590   -0.6191    1.0868 H   0  0  0  0  0  0  0  0  0  0  0  0
    6.1303   -1.4937    0.2396 H   0  0  0  0  0  0  0  0  0  0  0  0
  1  2  1  0  0  0  0
  1  9  1  0  0  0  0
  1 10  1  0  0  0  0
  1 11  1  0  0  0  0
  2  3  1  0  0  0  0
  2  4  1  0  0  0  0
  2 12  1  0  0  0  0
  3 13  1  0  0  0  0
  3 14  1  0  0  0  0
  3 15  1  0  0  0  0
  4  5  1  0  0  0  0
  4  7  1  0  0  0  0
  4 16  1  0  0  0  0
  5  6  2  0  0  0  0
  5 17  1  0  0  0  0
  7  8  1  0  0  0  0
  7 18  1  0  0  0  0
  8 19  1  0  0  0  0
  8 20  1  0  0  0  0
  8 21  1  0  0  0  0
M  END
$$$$
