
 OpenBabel05052217073D

  9  8  0  0  0  0  0  0  0  0999 V2000
    1.1605   -0.0230    0.0273 C   0  0  0  0  0  0  0  0  0  0  0  0
    2.6597    0.0204    0.0067 C   0  0  0  0  0  0  0  0  0  0  0  0
    3.3064    0.9597   -0.4395 O   0  0  0  0  0  0  0  0  0  0  0  0
    3.2730   -1.0781    0.5285 N   0  0  0  0  0  0  0  0  0  0  0  0
    0.7623    0.8964   -0.4095 H   0  0  0  0  0  0  0  0  0  0  0  0
    0.8058   -0.1072    1.0581 H   0  0  0  0  0  0  0  0  0  0  0  0
    0.8058   -0.8753   -0.5587 H   0  0  0  0  0  0  0  0  0  0  0  0
    2.7695   -1.8681    0.9038 H   0  0  0  0  0  0  0  0  0  0  0  0
    4.2845   -1.0917    0.5350 H   0  0  0  0  0  0  0  0  0  0  0  0
  1  2  1  0  0  0  0
  1  5  1  0  0  0  0
  1  6  1  0  0  0  0
  1  7  1  0  0  0  0
  2  3  2  0  0  0  0
  2  4  1  0  0  0  0
  4  8  1  0  0  0  0
  4  9  1  0  0  0  0
M  END
$$$$
