
 OpenBabel05052217073D

 14 13  0  0  0  0  0  0  0  0999 V2000
    1.0766    0.0183   -0.0241 C   0  0  0  0  0  0  0  0  0  0  0  0
    2.5962    0.0340   -0.0365 C   0  0  0  0  0  0  0  0  0  0  0  0
    3.1835   -1.0727    0.8362 C   0  0  0  0  0  0  0  0  0  0  0  0
    4.6954   -1.0523    0.8201 C   0  0  0  0  0  0  0  0  0  0  0  0
    5.3860   -0.2629    0.1977 O   0  0  0  0  0  0  0  0  0  0  0  0
    5.2298   -2.0290    1.5904 O   0  0  0  0  0  0  0  0  0  0  0  0
    0.6862    0.8213   -0.6574 H   0  0  0  0  0  0  0  0  0  0  0  0
    0.6900    0.1670    0.9891 H   0  0  0  0  0  0  0  0  0  0  0  0
    0.6900   -0.9323   -0.4049 H   0  0  0  0  0  0  0  0  0  0  0  0
    2.9494    1.0114    0.3134 H   0  0  0  0  0  0  0  0  0  0  0  0
    2.9494   -0.0784   -1.0685 H   0  0  0  0  0  0  0  0  0  0  0  0
    2.8499   -2.0500    0.4701 H   0  0  0  0  0  0  0  0  0  0  0  0
    2.8499   -0.9445    1.8720 H   0  0  0  0  0  0  0  0  0  0  0  0
    4.5653   -2.5894    2.0323 H   0  0  0  0  0  0  0  0  0  0  0  0
  1  2  1  0  0  0  0
  1  7  1  0  0  0  0
  1  8  1  0  0  0  0
  1  9  1  0  0  0  0
  2  3  1  0  0  0  0
  2 10  1  0  0  0  0
  2 11  1  0  0  0  0
  3  4  1  0  0  0  0
  3 12  1  0  0  0  0
  3 13  1  0  0  0  0
  4  5  2  0  0  0  0
  4  6  1  0  0  0  0
  6 14  1  0  0  0  0
M  END
$$$$
