
 OpenBabel05052217073D

 23 22  0  0  0  0  0  0  0  0999 V2000
    3.4450    1.3477   -3.7359 C   0  0  0  0  0  0  0  0  0  0  0  0
    3.5258   -0.3554   -3.1274 S   0  0  0  0  0  0  0  0  0  0  0  0
    4.7320   -0.1092   -1.7722 C   0  0  0  0  0  0  0  0  0  0  0  0
    4.9662   -1.4100   -0.9984 C   0  0  0  0  0  0  0  0  0  0  0  0
    5.5607   -2.4689   -1.7953 N   0  0  0  0  0  0  0  0  0  0  0  0
    6.9204   -2.5441   -1.9992 C   0  0  0  0  0  0  0  0  0  0  0  0
    7.7188   -1.7465   -1.5123 O   0  0  0  0  0  0  0  0  0  0  0  0
    7.3592   -3.7012   -2.8902 C   0  0  0  0  0  0  0  0  0  0  0  0
    7.5446   -3.2297   -4.3026 C   0  0  0  0  0  0  0  0  0  0  0  0
    6.8999   -3.7412   -5.3590 C   0  0  0  0  0  0  0  0  0  0  0  0
    2.7567    1.3915   -4.5845 H   0  0  0  0  0  0  0  0  0  0  0  0
    4.4298    1.6832   -4.0711 H   0  0  0  0  0  0  0  0  0  0  0  0
    3.0730    2.0167   -2.9553 H   0  0  0  0  0  0  0  0  0  0  0  0
    4.3329    0.6465   -1.0871 H   0  0  0  0  0  0  0  0  0  0  0  0
    5.6700    0.2635   -2.1953 H   0  0  0  0  0  0  0  0  0  0  0  0
    4.0247   -1.7992   -0.5946 H   0  0  0  0  0  0  0  0  0  0  0  0
    5.6279   -1.2057   -0.1485 H   0  0  0  0  0  0  0  0  0  0  0  0
    4.9535   -2.9587   -2.4422 H   0  0  0  0  0  0  0  0  0  0  0  0
    6.6318   -4.5163   -2.8233 H   0  0  0  0  0  0  0  0  0  0  0  0
    8.3079   -4.0867   -2.5007 H   0  0  0  0  0  0  0  0  0  0  0  0
    8.2638   -2.4277   -4.4567 H   0  0  0  0  0  0  0  0  0  0  0  0
    6.1809   -4.5491   -5.2592 H   0  0  0  0  0  0  0  0  0  0  0  0
    7.0879   -3.3622   -6.3591 H   0  0  0  0  0  0  0  0  0  0  0  0
  1  2  1  0  0  0  0
  1 11  1  0  0  0  0
  1 12  1  0  0  0  0
  1 13  1  0  0  0  0
  2  3  1  0  0  0  0
  3  4  1  0  0  0  0
  3 14  1  0  0  0  0
  3 15  1  0  0  0  0
  4  5  1  0  0  0  0
  4 16  1  0  0  0  0
  4 17  1  0  0  0  0
  5  6  1  0  0  0  0
  5 18  1  0  0  0  0
  6  7  2  0  0  0  0
  6  8  1  0  0  0  0
  8  9  1  0  0  0  0
  8 19  1  0  0  0  0
  8 20  1  0  0  0  0
  9 10  2  0  0  0  0
  9 21  1  0  0  0  0
 10 22  1  0  0  0  0
 10 23  1  0  0  0  0
M  END
$$$$
