
 OpenBabel05052217073D

 17 16  0  0  1  0  0  0  0  0999 V2000
    2.9882    1.1801   -0.8345 C   0  0  0  0  0  0  0  0  0  0  0  0
    2.6494   -0.0872   -0.0467 C   0  0  3  0  0  0  0  0  0  0  0  0
    3.1777   -0.0946    1.4076 C   0  0  3  0  0  0  0  0  0  0  0  0
    4.7137   -0.0209    1.4094 C   0  0  0  0  0  0  0  0  0  0  0  0
    5.3457    1.0267    1.4790 O   0  0  0  0  0  0  0  0  0  0  0  0
    5.3298   -1.2220    1.3303 O   0  0  0  0  0  0  0  0  0  0  0  0
    2.6365    1.0153    2.2374 N   0  0  0  0  0  0  0  0  0  0  0  0
    0.8243   -0.2944   -0.0727 S   0  0  0  0  0  0  0  0  0  0  0  0
    4.0717    1.2918   -0.9413 H   0  0  0  0  0  0  0  0  0  0  0  0
    2.6044    2.0872   -0.3532 H   0  0  0  0  0  0  0  0  0  0  0  0
    2.5750    1.1392   -1.8482 H   0  0  0  0  0  0  0  0  0  0  0  0
    3.0659   -0.9488   -0.5825 H   0  0  0  0  0  0  0  0  0  0  0  0
    2.8912   -1.0284    1.9070 H   0  0  0  0  0  0  0  0  0  0  0  0
    4.7385   -1.9992    1.3354 H   0  0  0  0  0  0  0  0  0  0  0  0
    3.0147    1.8935    1.8689 H   0  0  0  0  0  0  0  0  0  0  0  0
    3.0510    0.9531    3.1700 H   0  0  0  0  0  0  0  0  0  0  0  0
    0.5532    0.8514    0.5772 H   0  0  0  0  0  0  0  0  0  0  0  0
  1  2  1  0  0  0  0
  1  9  1  0  0  0  0
  1 10  1  0  0  0  0
  1 11  1  0  0  0  0
  2  3  1  0  0  0  0
  2  8  1  0  0  0  0
  2 12  1  0  0  0  0
  3  4  1  0  0  0  0
  3  7  1  0  0  0  0
  3 13  1  0  0  0  0
  4  5  2  0  0  0  0
  4  6  1  0  0  0  0
  6 14  1  0  0  0  0
  7 15  1  0  0  0  0
  7 16  1  0  0  0  0
  8 17  1  0  0  0  0
M  END
$$$$
