
 OpenBabel05052217073D

 17 16  0  0  1  0  0  0  0  0999 V2000
    1.0472    0.0925   -0.0674 C   0  0  0  0  0  0  0  0  0  0  0  0
    2.5601   -0.0986   -0.0707 C   0  0  3  0  0  0  0  0  0  0  0  0
    3.0789   -0.2226    1.3634 C   0  0  0  0  0  0  0  0  0  0  0  0
    3.6827   -1.1878    1.8244 O   0  0  0  0  0  0  0  0  0  0  0  0
    2.9625   -1.2015   -0.9494 N   0  0  0  0  0  0  0  0  0  0  0  0
    2.6493   -2.5759   -0.5995 C   0  0  0  0  0  0  0  0  0  0  0  0
    3.6323   -0.9376   -2.1263 C   0  0  0  0  0  0  0  0  0  0  0  0
    3.9118    0.1742   -2.5544 O   0  0  0  0  0  0  0  0  0  0  0  0
    0.7643    0.9631    0.5340 H   0  0  0  0  0  0  0  0  0  0  0  0
    0.5323   -0.7777    0.3530 H   0  0  0  0  0  0  0  0  0  0  0  0
    0.6734    0.2449   -1.0857 H   0  0  0  0  0  0  0  0  0  0  0  0
    3.0095    0.8285   -0.4491 H   0  0  0  0  0  0  0  0  0  0  0  0
    2.8731    0.6542    2.0030 H   0  0  0  0  0  0  0  0  0  0  0  0
    2.1000   -2.6384    0.3425 H   0  0  0  0  0  0  0  0  0  0  0  0
    3.5818   -3.1443   -0.5260 H   0  0  0  0  0  0  0  0  0  0  0  0
    2.0423   -3.0092   -1.4001 H   0  0  0  0  0  0  0  0  0  0  0  0
    3.8936   -1.8540   -2.6824 H   0  0  0  0  0  0  0  0  0  0  0  0
  1  2  1  0  0  0  0
  1  9  1  0  0  0  0
  1 10  1  0  0  0  0
  1 11  1  0  0  0  0
  2  3  1  0  0  0  0
  2  5  1  0  0  0  0
  2 12  1  0  0  0  0
  3  4  2  0  0  0  0
  3 13  1  0  0  0  0
  5  6  1  0  0  0  0
  5  7  1  0  0  0  0
  6 14  1  0  0  0  0
  6 15  1  0  0  0  0
  6 16  1  0  0  0  0
  7  8  2  0  0  0  0
  7 17  1  0  0  0  0
M  END
$$$$
