
 OpenBabel05052217073D

 15 14  0  0  0  0  0  0  0  0999 V2000
    2.4112    1.4908   -0.1315 C   0  0  0  0  0  0  0  0  0  0  0  0
    2.6216   -0.0087   -0.0165 C   0  0  0  0  0  0  0  0  0  0  0  0
    3.1808   -0.3841    1.2662 N   0  0  0  0  0  0  0  0  0  0  0  0
    4.5405   -0.4200    1.4724 C   0  0  0  0  0  0  0  0  0  0  0  0
    5.3665   -0.1503    0.6044 O   0  0  0  0  0  0  0  0  0  0  0  0
    4.9600   -0.8299    2.8580 C   0  0  0  0  0  0  0  0  0  0  0  0
    1.9988    1.7410   -1.1144 H   0  0  0  0  0  0  0  0  0  0  0  0
    3.3527    2.0356   -0.0074 H   0  0  0  0  0  0  0  0  0  0  0  0
    1.7141    1.8492    0.6328 H   0  0  0  0  0  0  0  0  0  0  0  0
    3.2895   -0.3500   -0.8143 H   0  0  0  0  0  0  0  0  0  0  0  0
    1.6675   -0.5338   -0.1233 H   0  0  0  0  0  0  0  0  0  0  0  0
    2.5498   -0.5719    2.0345 H   0  0  0  0  0  0  0  0  0  0  0  0
    4.1031   -1.0215    3.5089 H   0  0  0  0  0  0  0  0  0  0  0  0
    5.5614   -0.0283    3.2957 H   0  0  0  0  0  0  0  0  0  0  0  0
    5.5589   -1.7428    2.7911 H   0  0  0  0  0  0  0  0  0  0  0  0
  1  2  1  0  0  0  0
  1  7  1  0  0  0  0
  1  8  1  0  0  0  0
  1  9  1  0  0  0  0
  2  3  1  0  0  0  0
  2 10  1  0  0  0  0
  2 11  1  0  0  0  0
  3  4  1  0  0  0  0
  3 12  1  0  0  0  0
  4  5  2  0  0  0  0
  4  6  1  0  0  0  0
  6 13  1  0  0  0  0
  6 14  1  0  0  0  0
  6 15  1  0  0  0  0
M  END
$$$$
