
 OpenBabel05052217073D

  8  7  0  0  0  0  0  0  0  0999 V2000
    0.9452   -0.0805   -0.0083 C   0  0  0  0  0  0  0  0  0  0  0  0
    2.4572   -0.0805   -0.0083 C   0  0  0  0  0  0  0  0  0  0  0  0
    0.5609   -0.5972   -0.8928 H   0  0  0  0  0  0  0  0  0  0  0  0
    0.5609    0.9439   -0.0136 H   0  0  0  0  0  0  0  0  0  0  0  0
    0.5609   -0.5880    0.8814 H   0  0  0  0  0  0  0  0  0  0  0  0
    2.8415    0.4271   -0.8981 H   0  0  0  0  0  0  0  0  0  0  0  0
    2.8415   -1.1048   -0.0030 H   0  0  0  0  0  0  0  0  0  0  0  0
    2.8415    0.4363    0.8761 H   0  0  0  0  0  0  0  0  0  0  0  0
  1  2  1  0  0  0  0
  1  3  1  0  0  0  0
  1  4  1  0  0  0  0
  1  5  1  0  0  0  0
  2  6  1  0  0  0  0
  2  7  1  0  0  0  0
  2  8  1  0  0  0  0
M  END
$$$$
