
 OpenBabel05052217073D

 10  9  0  0  0  0  0  0  0  0999 V2000
    1.0930    0.0308    0.0351 C   0  0  0  0  0  0  0  0  0  0  0  0
    2.4305    0.0211    0.0155 C   0  0  0  0  0  0  0  0  0  0  0  0
    3.1926   -0.5164   -1.0837 C   0  0  0  0  0  0  0  0  0  0  0  0
    4.5303   -0.5277   -1.1034 C   0  0  0  0  0  0  0  0  0  0  0  0
    0.5575    0.4456    0.8837 H   0  0  0  0  0  0  0  0  0  0  0  0
    0.4999   -0.3685   -0.7813 H   0  0  0  0  0  0  0  0  0  0  0  0
    2.9754    0.4345    0.8615 H   0  0  0  0  0  0  0  0  0  0  0  0
    2.6468   -0.9287   -1.9300 H   0  0  0  0  0  0  0  0  0  0  0  0
    5.1231   -0.1297   -0.2861 H   0  0  0  0  0  0  0  0  0  0  0  0
    5.0654   -0.9425   -1.9518 H   0  0  0  0  0  0  0  0  0  0  0  0
  1  2  2  0  0  0  0
  1  5  1  0  0  0  0
  1  6  1  0  0  0  0
  2  3  1  0  0  0  0
  2  7  1  0  0  0  0
  3  4  2  0  0  0  0
  3  8  1  0  0  0  0
  4  9  1  0  0  0  0
  4 10  1  0  0  0  0
M  END
$$$$
