
 OpenBabel05052217073D

 19 18  0  0  0  0  0  0  0  0999 V2000
    1.0081   -0.0596   -0.0672 C   0  0  0  0  0  0  0  0  0  0  0  0
    2.5202   -0.1099    0.0602 C   0  0  0  0  0  0  0  0  0  0  0  0
    2.9573   -0.7940    1.6877 S   0  0  0  0  0  0  0  0  0  0  0  0
    4.7710   -0.7565    1.5261 C   0  0  0  0  0  0  0  0  0  0  0  0
    5.4153   -1.3343    2.7892 C   0  0  0  0  0  0  0  0  0  0  0  0
    6.8668   -1.2882    2.7599 N   0  0  0  0  0  0  0  0  0  0  0  0
    7.5988   -2.0299    1.8674 C   0  0  0  0  0  0  0  0  0  0  0  0
    7.1439   -2.7306    0.9780 O   0  0  0  0  0  0  0  0  0  0  0  0
    0.7260    0.3663   -1.0355 H   0  0  0  0  0  0  0  0  0  0  0  0
    0.5610    0.5662    0.7130 H   0  0  0  0  0  0  0  0  0  0  0  0
    0.5675   -1.0607   -0.0047 H   0  0  0  0  0  0  0  0  0  0  0  0
    2.9356    0.8982   -0.0316 H   0  0  0  0  0  0  0  0  0  0  0  0
    2.9405   -0.7368   -0.7321 H   0  0  0  0  0  0  0  0  0  0  0  0
    5.0986    0.2781    1.3801 H   0  0  0  0  0  0  0  0  0  0  0  0
    5.0586   -1.3316    0.6415 H   0  0  0  0  0  0  0  0  0  0  0  0
    5.1177   -2.3792    2.9366 H   0  0  0  0  0  0  0  0  0  0  0  0
    5.1076   -0.7626    3.6725 H   0  0  0  0  0  0  0  0  0  0  0  0
    7.3546   -0.8185    3.5111 H   0  0  0  0  0  0  0  0  0  0  0  0
    8.6824   -1.9173    2.0350 H   0  0  0  0  0  0  0  0  0  0  0  0
  1  2  1  0  0  0  0
  1  9  1  0  0  0  0
  1 10  1  0  0  0  0
  1 11  1  0  0  0  0
  2  3  1  0  0  0  0
  2 12  1  0  0  0  0
  2 13  1  0  0  0  0
  3  4  1  0  0  0  0
  4  5  1  0  0  0  0
  4 14  1  0  0  0  0
  4 15  1  0  0  0  0
  5  6  1  0  0  0  0
  5 16  1  0  0  0  0
  5 17  1  0  0  0  0
  6  7  1  0  0  0  0
  6 18  1  0  0  0  0
  7  8  2  0  0  0  0
  7 19  1  0  0  0  0
M  END
$$$$
