
 OpenBabel05052217073D

 13 12  0  0  0  0  0  0  0  0999 V2000
    1.4134   -0.6331   -0.7485 C   0  0  0  0  0  0  0  0  0  0  0  0
    2.2943    0.1119   -0.0690 C   0  0  0  0  0  0  0  0  0  0  0  0
    3.0977    1.2322   -0.6652 C   0  0  0  0  0  0  0  0  0  0  0  0
    4.5878    0.9640   -0.5096 C   0  0  0  0  0  0  0  0  0  0  0  0
    5.1438    0.7919    0.5705 O   0  0  0  0  0  0  0  0  0  0  0  0
    5.3059    0.9397   -1.6712 N   0  0  0  0  0  0  0  0  0  0  0  0
    0.8599   -1.4248   -0.2507 H   0  0  0  0  0  0  0  0  0  0  0  0
    1.2189   -0.4754   -1.8040 H   0  0  0  0  0  0  0  0  0  0  0  0
    2.4519   -0.0853    0.9910 H   0  0  0  0  0  0  0  0  0  0  0  0
    2.8701    2.1698   -0.1471 H   0  0  0  0  0  0  0  0  0  0  0  0
    2.8488    1.3768   -1.7227 H   0  0  0  0  0  0  0  0  0  0  0  0
    4.8781    0.9721   -2.5851 H   0  0  0  0  0  0  0  0  0  0  0  0
    6.2917    0.7232   -1.6032 H   0  0  0  0  0  0  0  0  0  0  0  0
  1  2  2  0  0  0  0
  1  7  1  0  0  0  0
  1  8  1  0  0  0  0
  2  3  1  0  0  0  0
  2  9  1  0  0  0  0
  3  4  1  0  0  0  0
  3 10  1  0  0  0  0
  3 11  1  0  0  0  0
  4  5  2  0  0  0  0
  4  6  1  0  0  0  0
  6 12  1  0  0  0  0
  6 13  1  0  0  0  0
M  END
$$$$
