
 OpenBabel05052217073D

 21 20  0  0  0  0  0  0  0  0999 V2000
    1.9472   -1.4611   -2.7583 C   0  0  0  0  0  0  0  0  0  0  0  0
    2.5395   -1.1253   -1.6046 C   0  0  0  0  0  0  0  0  0  0  0  0
    3.1088    0.2306   -1.3098 C   0  0  0  0  0  0  0  0  0  0  0  0
    4.5897    0.1154   -0.9665 C   0  0  0  0  0  0  0  0  0  0  0  0
    4.9844   -0.1429    0.1657 O   0  0  0  0  0  0  0  0  0  0  0  0
    5.4335    0.3148   -2.0369 N   0  0  0  0  0  0  0  0  0  0  0  0
    6.8777    0.2522   -1.8908 C   0  0  0  0  0  0  0  0  0  0  0  0
    7.4314   -1.1745   -2.0056 C   0  0  0  0  0  0  0  0  0  0  0  0
    7.1450   -1.7669   -3.3171 N   0  0  0  0  0  0  0  0  0  0  0  0
    1.5408   -2.4579   -2.9023 H   0  0  0  0  0  0  0  0  0  0  0  0
    1.8374   -0.7544   -3.5752 H   0  0  0  0  0  0  0  0  0  0  0  0
    2.6104   -1.8649   -0.8080 H   0  0  0  0  0  0  0  0  0  0  0  0
    2.5936    0.6712   -0.4484 H   0  0  0  0  0  0  0  0  0  0  0  0
    2.9737    0.9228   -2.1490 H   0  0  0  0  0  0  0  0  0  0  0  0
    5.0552    0.3179   -2.9757 H   0  0  0  0  0  0  0  0  0  0  0  0
    7.1533    0.6727   -0.9172 H   0  0  0  0  0  0  0  0  0  0  0  0
    7.3067    0.8934   -2.6687 H   0  0  0  0  0  0  0  0  0  0  0  0
    7.0016   -1.8144   -1.2258 H   0  0  0  0  0  0  0  0  0  0  0  0
    8.5166   -1.1518   -1.8582 H   0  0  0  0  0  0  0  0  0  0  0  0
    6.1348   -1.8771   -3.4043 H   0  0  0  0  0  0  0  0  0  0  0  0
    7.5261   -2.7144   -3.3354 H   0  0  0  0  0  0  0  0  0  0  0  0
  1  2  2  0  0  0  0
  1 10  1  0  0  0  0
  1 11  1  0  0  0  0
  2  3  1  0  0  0  0
  2 12  1  0  0  0  0
  3  4  1  0  0  0  0
  3 13  1  0  0  0  0
  3 14  1  0  0  0  0
  4  5  2  0  0  0  0
  4  6  1  0  0  0  0
  6  7  1  0  0  0  0
  6 15  1  0  0  0  0
  7  8  1  0  0  0  0
  7 16  1  0  0  0  0
  7 17  1  0  0  0  0
  8  9  1  0  0  0  0
  8 18  1  0  0  0  0
  8 19  1  0  0  0  0
  9 20  1  0  0  0  0
  9 21  1  0  0  0  0
M  END
$$$$
