
 OpenBabel05052217073D

 13 12  0  0  1  0  0  0  0  0999 V2000
    0.9231   -0.0515   -0.0101 C   0  0  0  0  0  0  0  0  0  0  0  0
    0.3527   -0.1045    1.4352 C   0  0  3  0  0  0  0  0  0  0  0  0
    0.7773    1.0639    2.2031 N   0  0  0  0  0  0  0  0  0  0  0  0
   -1.4648   -0.1397    1.4006 S   0  0  0  0  0  0  0  0  0  0  0  0
    0.5940    1.1956   -0.7281 N   0  0  0  0  0  0  0  0  0  0  0  0
    0.5729   -0.9121   -0.5922 H   0  0  0  0  0  0  0  0  0  0  0  0
    2.0159   -0.1240    0.0416 H   0  0  0  0  0  0  0  0  0  0  0  0
    0.6998   -1.0172    1.9300 H   0  0  0  0  0  0  0  0  0  0  0  0
    0.5920    1.8749    1.6061 H   0  0  0  0  0  0  0  0  0  0  0  0
    1.7931    1.0469    2.2775 H   0  0  0  0  0  0  0  0  0  0  0  0
   -1.6108    1.1348    1.0170 H   0  0  0  0  0  0  0  0  0  0  0  0
   -0.4125    1.2105   -0.8912 H   0  0  0  0  0  0  0  0  0  0  0  0
    1.0164    1.1578   -1.6568 H   0  0  0  0  0  0  0  0  0  0  0  0
  1  2  1  0  0  0  0
  1  5  1  0  0  0  0
  1  6  1  0  0  0  0
  1  7  1  0  0  0  0
  2  3  1  0  0  0  0
  2  4  1  0  0  0  0
  2  8  1  0  0  0  0
  3  9  1  0  0  0  0
  3 10  1  0  0  0  0
  4 11  1  0  0  0  0
  5 12  1  0  0  0  0
  5 13  1  0  0  0  0
M  END
$$$$
