
 OpenBabel05052217073D

 18 17  0  0  1  0  0  0  0  0999 V2000
    0.9041    0.0931    0.1655 C   0  0  0  0  0  0  0  0  0  0  0  0
    2.4177   -0.0346   -0.0316 C   0  0  3  0  0  0  0  0  0  0  0  0
    2.9200   -1.4278    0.4085 C   0  0  0  0  0  0  0  0  0  0  0  0
    2.2139   -2.2809    0.9308 O   0  0  0  0  0  0  0  0  0  0  0  0
    4.2583   -1.5956    0.2828 O   0  0  0  0  0  0  0  0  0  0  0  0
    2.8658    0.3584   -1.3902 N   0  0  0  0  0  0  0  0  0  0  0  0
    2.1494   -0.0915   -2.5717 C   0  0  0  0  0  0  0  0  0  0  0  0
    4.1623    0.7980   -1.5676 C   0  0  0  0  0  0  0  0  0  0  0  0
    4.9983    0.8000   -0.6688 O   0  0  0  0  0  0  0  0  0  0  0  0
    0.6520    0.0193    1.2271 H   0  0  0  0  0  0  0  0  0  0  0  0
    0.3577   -0.7058   -0.3461 H   0  0  0  0  0  0  0  0  0  0  0  0
    0.5383    1.0563   -0.2067 H   0  0  0  0  0  0  0  0  0  0  0  0
    2.8825    0.6731    0.6691 H   0  0  0  0  0  0  0  0  0  0  0  0
    4.7241   -0.7654    0.0181 H   0  0  0  0  0  0  0  0  0  0  0  0
    1.1221   -0.3779   -2.3515 H   0  0  0  0  0  0  0  0  0  0  0  0
    2.6841   -0.9378   -3.0129 H   0  0  0  0  0  0  0  0  0  0  0  0
    2.1366    0.7257   -3.3013 H   0  0  0  0  0  0  0  0  0  0  0  0
    4.3985    1.0882   -2.6050 H   0  0  0  0  0  0  0  0  0  0  0  0
  1  2  1  0  0  0  0
  1 10  1  0  0  0  0
  1 11  1  0  0  0  0
  1 12  1  0  0  0  0
  2  3  1  0  0  0  0
  2  6  1  0  0  0  0
  2 13  1  0  0  0  0
  3  4  2  0  0  0  0
  3  5  1  0  0  0  0
  5 14  1  0  0  0  0
  6  7  1  0  0  0  0
  6  8  1  0  0  0  0
  7 15  1  0  0  0  0
  7 16  1  0  0  0  0
  7 17  1  0  0  0  0
  8  9  2  0  0  0  0
  8 18  1  0  0  0  0
M  END
$$$$
