
 OpenBabel05052217073D

 18 17  0  0  0  0  0  0  0  0999 V2000
    0.9505    0.0551    0.0017 C   0  0  0  0  0  0  0  0  0  0  0  0
    0.3844   -1.1133   -0.8269 C   0  0  0  0  0  0  0  0  0  0  0  0
   -1.0890   -1.1443   -0.7572 N   0  0  0  0  0  0  0  0  0  0  0  0
   -1.5969   -2.2418   -1.6259 C   0  0  0  0  0  0  0  0  0  0  0  0
   -3.1156   -2.3191   -1.4888 C   0  0  0  0  0  0  0  0  0  0  0  0
   -3.8688   -2.8129   -2.3132 O   0  0  0  0  0  0  0  0  0  0  0  0
   -3.5393   -1.8016   -0.3058 O   0  0  0  0  0  0  0  0  0  0  0  0
    2.4087    0.1100   -0.0775 N   0  0  0  0  0  0  0  0  0  0  0  0
    0.6487   -0.0446    1.0493 H   0  0  0  0  0  0  0  0  0  0  0  0
    0.5459    1.0039   -0.3712 H   0  0  0  0  0  0  0  0  0  0  0  0
    0.7910   -2.0577   -0.4462 H   0  0  0  0  0  0  0  0  0  0  0  0
    0.7054   -1.0021   -1.8723 H   0  0  0  0  0  0  0  0  0  0  0  0
   -1.4247   -0.2594   -1.1574 H   0  0  0  0  0  0  0  0  0  0  0  0
   -1.1900   -3.2059   -1.3048 H   0  0  0  0  0  0  0  0  0  0  0  0
   -1.3475   -2.0466   -2.6732 H   0  0  0  0  0  0  0  0  0  0  0  0
   -2.7339   -1.4693    0.1581 H   0  0  0  0  0  0  0  0  0  0  0  0
    2.8064   -0.7307    0.3412 H   0  0  0  0  0  0  0  0  0  0  0  0
    2.7458    0.8893    0.4879 H   0  0  0  0  0  0  0  0  0  0  0  0
  1  2  1  0  0  0  0
  1  8  1  0  0  0  0
  1  9  1  0  0  0  0
  1 10  1  0  0  0  0
  2  3  1  0  0  0  0
  2 11  1  0  0  0  0
  2 12  1  0  0  0  0
  3  4  1  0  0  0  0
  3 13  1  0  0  0  0
  4  5  1  0  0  0  0
  4 14  1  0  0  0  0
  4 15  1  0  0  0  0
  5  6  2  0  0  0  0
  5  7  1  0  0  0  0
  7 16  1  0  0  0  0
  8 17  1  0  0  0  0
  8 18  1  0  0  0  0
M  END
$$$$
