
 OpenBabel05052217073D

 12 11  0  0  0  0  0  0  0  0999 V2000
    1.0044   -0.0265   -0.0057 C   0  0  0  0  0  0  0  0  0  0  0  0
    2.5038   -0.0896    0.1002 C   0  0  0  0  0  0  0  0  0  0  0  0
    3.0733   -0.6423    1.0339 O   0  0  0  0  0  0  0  0  0  0  0  0
    3.1494    0.5289   -0.9457 N   0  0  0  0  0  0  0  0  0  0  0  0
    4.5876    0.5835   -1.0407 C   0  0  0  0  0  0  0  0  0  0  0  0
    0.5558   -0.5344    0.8528 H   0  0  0  0  0  0  0  0  0  0  0  0
    0.6745   -0.5249   -0.9213 H   0  0  0  0  0  0  0  0  0  0  0  0
    0.6747    1.0160   -0.0096 H   0  0  0  0  0  0  0  0  0  0  0  0
    2.6017    0.9624   -1.6772 H   0  0  0  0  0  0  0  0  0  0  0  0
    5.0713    0.0837   -0.1983 H   0  0  0  0  0  0  0  0  0  0  0  0
    4.8879    1.6339   -1.0670 H   0  0  0  0  0  0  0  0  0  0  0  0
    4.8860    0.1013   -1.9749 H   0  0  0  0  0  0  0  0  0  0  0  0
  1  2  1  0  0  0  0
  1  6  1  0  0  0  0
  1  7  1  0  0  0  0
  1  8  1  0  0  0  0
  2  3  2  0  0  0  0
  2  4  1  0  0  0  0
  4  5  1  0  0  0  0
  4  9  1  0  0  0  0
  5 10  1  0  0  0  0
  5 11  1  0  0  0  0
  5 12  1  0  0  0  0
M  END
$$$$
