
 OpenBabel05052217073D

  7  6  0  0  0  0  0  0  0  0999 V2000
    1.0790    0.0380   -0.0724 C   0  0  0  0  0  0  0  0  0  0  0  0
    2.5309    0.0492   -0.0812 N   0  0  0  0  0  0  0  0  0  0  0  0
    0.7040   -0.7717    0.5599 H   0  0  0  0  0  0  0  0  0  0  0  0
    0.6964   -0.1033   -1.0870 H   0  0  0  0  0  0  0  0  0  0  0  0
    0.6964    0.9881    0.3106 H   0  0  0  0  0  0  0  0  0  0  0  0
    2.8747   -0.8516   -0.4115 H   0  0  0  0  0  0  0  0  0  0  0  0
    2.8747    0.1513    0.8728 H   0  0  0  0  0  0  0  0  0  0  0  0
  1  2  1  0  0  0  0
  1  3  1  0  0  0  0
  1  4  1  0  0  0  0
  1  5  1  0  0  0  0
  2  6  1  0  0  0  0
  2  7  1  0  0  0  0
M  END
$$$$
