
 OpenBabel05052217073D

 18 18  0  0  1  0  0  0  0  0999 V2000
    0.3264    0.9561    0.0221 C   0  0  0  0  0  0  0  0  0  0  0  0
    0.9840   -0.4477    0.1706 C   0  0  3  0  0  0  0  0  0  0  0  0
   -0.5242   -0.9160    0.2194 C   0  0  0  0  0  0  0  0  0  0  0  0
   -1.1838   -1.9059    0.0259 O   0  0  0  0  0  0  0  0  0  0  0  0
   -0.8914    0.3454    0.6065 N   0  0  0  0  0  0  0  0  0  0  0  0
   -2.2376    0.8672    0.4638 C   0  0  0  0  0  0  0  0  0  0  0  0
   -2.4210    2.0512    1.4015 C   0  0  0  0  0  0  0  0  0  0  0  0
   -3.3333    2.8582    1.3204 O   0  0  0  0  0  0  0  0  0  0  0  0
   -1.5070    2.0835    2.4062 O   0  0  0  0  0  0  0  0  0  0  0  0
    1.6847   -0.5324    1.4737 N   0  0  0  0  0  0  0  0  0  0  0  0
    0.1751    1.2912   -1.0109 H   0  0  0  0  0  0  0  0  0  0  0  0
    0.7416    1.7720    0.6195 H   0  0  0  0  0  0  0  0  0  0  0  0
    1.5674   -0.7794   -0.6892 H   0  0  0  0  0  0  0  0  0  0  0  0
   -2.9490    0.0863    0.7493 H   0  0  0  0  0  0  0  0  0  0  0  0
   -2.4021    1.1644   -0.5741 H   0  0  0  0  0  0  0  0  0  0  0  0
   -0.9153    1.3038    2.3276 H   0  0  0  0  0  0  0  0  0  0  0  0
    1.0673   -0.4788    2.2834 H   0  0  0  0  0  0  0  0  0  0  0  0
    2.4188    0.1591    1.6142 H   0  0  0  0  0  0  0  0  0  0  0  0
  1  2  1  0  0  0  0
  1  5  1  0  0  0  0
  1 11  1  0  0  0  0
  1 12  1  0  0  0  0
  2  3  1  0  0  0  0
  2 10  1  0  0  0  0
  2 13  1  0  0  0  0
  3  4  2  0  0  0  0
  3  5  1  0  0  0  0
  5  6  1  0  0  0  0
  6  7  1  0  0  0  0
  6 14  1  0  0  0  0
  6 15  1  0  0  0  0
  7  8  2  0  0  0  0
  7  9  1  0  0  0  0
  9 16  1  0  0  0  0
 10 17  1  0  0  0  0
 10 18  1  0  0  0  0
M  END
$$$$
