
 OpenBabel05052217073D

 23 22  0  0  1  0  0  0  0  0999 V2000
    0.9632   -0.1660    0.0672 C   0  0  0  0  0  0  0  0  0  0  0  0
    2.4873   -0.1118    0.0986 C   0  0  0  0  0  0  0  0  0  0  0  0
    3.0412    1.1467    0.7891 C   0  0  3  0  0  0  0  0  0  0  0  0
    2.6029    1.2129    2.2518 C   0  0  0  0  0  0  0  0  0  0  0  0
    2.4131    0.2354    2.9694 O   0  0  0  0  0  0  0  0  0  0  0  0
    4.5201    1.2011    0.7979 N   0  0  0  0  0  0  0  0  0  0  0  0
    5.0996    1.2684   -0.5490 C   0  0  0  0  0  0  0  0  0  0  0  0
    6.6383    1.2979   -0.5064 C   0  0  0  0  0  0  0  0  0  0  0  0
    7.1978    1.2715   -1.8580 N   0  0  0  0  0  0  0  0  0  0  0  0
    0.6378   -1.0260   -0.5260 H   0  0  0  0  0  0  0  0  0  0  0  0
    0.5498    0.7374   -0.3908 H   0  0  0  0  0  0  0  0  0  0  0  0
    0.5427   -0.2744    1.0697 H   0  0  0  0  0  0  0  0  0  0  0  0
    2.8167   -0.1468   -0.9454 H   0  0  0  0  0  0  0  0  0  0  0  0
    2.8690   -1.0186    0.5849 H   0  0  0  0  0  0  0  0  0  0  0  0
    2.6398    2.0430    0.3016 H   0  0  0  0  0  0  0  0  0  0  0  0
    2.5261    2.2346    2.6704 H   0  0  0  0  0  0  0  0  0  0  0  0
    4.8727    0.3704    1.2800 H   0  0  0  0  0  0  0  0  0  0  0  0
    4.7324    2.1627   -1.0665 H   0  0  0  0  0  0  0  0  0  0  0  0
    4.8073    0.3923   -1.1355 H   0  0  0  0  0  0  0  0  0  0  0  0
    7.0154    0.4308    0.0469 H   0  0  0  0  0  0  0  0  0  0  0  0
    6.9843    2.2000    0.0096 H   0  0  0  0  0  0  0  0  0  0  0  0
    6.9223    0.4089   -2.3254 H   0  0  0  0  0  0  0  0  0  0  0  0
    8.2143    1.2513   -1.7998 H   0  0  0  0  0  0  0  0  0  0  0  0
  1  2  1  0  0  0  0
  1 10  1  0  0  0  0
  1 11  1  0  0  0  0
  1 12  1  0  0  0  0
  2  3  1  0  0  0  0
  2 13  1  0  0  0  0
  2 14  1  0  0  0  0
  3  4  1  0  0  0  0
  3  6  1  0  0  0  0
  3 15  1  0  0  0  0
  4  5  2  0  0  0  0
  4 16  1  0  0  0  0
  6  7  1  0  0  0  0
  6 17  1  0  0  0  0
  7  8  1  0  0  0  0
  7 18  1  0  0  0  0
  7 19  1  0  0  0  0
  8  9  1  0  0  0  0
  8 20  1  0  0  0  0
  8 21  1  0  0  0  0
  9 22  1  0  0  0  0
  9 23  1  0  0  0  0
M  END
$$$$
