
 OpenBabel05052217073D

 22 21  0  0  0  0  0  0  0  0999 V2000
    1.1108   -0.6800    1.4123 C   0  0  0  0  0  0  0  0  0  0  0  0
    2.6053   -0.7053    1.5816 C   0  0  0  0  0  0  0  0  0  0  0  0
    3.1529   -0.4431    2.6469 O   0  0  0  0  0  0  0  0  0  0  0  0
    3.2884   -1.0552    0.4394 N   0  0  0  0  0  0  0  0  0  0  0  0
    4.7387   -1.1309    0.4146 C   0  0  0  0  0  0  0  0  0  0  0  0
    5.2666   -2.5116    0.8441 C   0  0  0  0  0  0  0  0  0  0  0  0
    6.7381   -2.5508    0.8178 N   0  0  0  0  0  0  0  0  0  0  0  0
    7.2210   -3.8764    1.2354 C   0  0  0  0  0  0  0  0  0  0  0  0
    8.7358   -3.8813    1.2164 C   0  0  0  0  0  0  0  0  0  0  0  0
    9.4275   -4.1236    2.2039 O   0  0  0  0  0  0  0  0  0  0  0  0
    0.6439   -0.3572    2.3479 H   0  0  0  0  0  0  0  0  0  0  0  0
    0.7474   -1.6810    1.1653 H   0  0  0  0  0  0  0  0  0  0  0  0
    0.8325    0.0230    0.6223 H   0  0  0  0  0  0  0  0  0  0  0  0
    2.7744   -1.2633   -0.4073 H   0  0  0  0  0  0  0  0  0  0  0  0
    5.1412   -0.3544    1.0754 H   0  0  0  0  0  0  0  0  0  0  0  0
    5.0544   -0.9020   -0.6085 H   0  0  0  0  0  0  0  0  0  0  0  0
    4.8637   -3.2712    0.1627 H   0  0  0  0  0  0  0  0  0  0  0  0
    4.9011   -2.7470    1.8512 H   0  0  0  0  0  0  0  0  0  0  0  0
    7.0843   -1.8589    1.4895 H   0  0  0  0  0  0  0  0  0  0  0  0
    6.8807   -4.6538    0.5433 H   0  0  0  0  0  0  0  0  0  0  0  0
    6.8821   -4.1204    2.2480 H   0  0  0  0  0  0  0  0  0  0  0  0
    9.2011   -3.6850    0.2361 H   0  0  0  0  0  0  0  0  0  0  0  0
  1  2  1  0  0  0  0
  1 11  1  0  0  0  0
  1 12  1  0  0  0  0
  1 13  1  0  0  0  0
  2  3  2  0  0  0  0
  2  4  1  0  0  0  0
  4  5  1  0  0  0  0
  4 14  1  0  0  0  0
  5  6  1  0  0  0  0
  5 15  1  0  0  0  0
  5 16  1  0  0  0  0
  6  7  1  0  0  0  0
  6 17  1  0  0  0  0
  6 18  1  0  0  0  0
  7  8  1  0  0  0  0
  7 19  1  0  0  0  0
  8  9  1  0  0  0  0
  8 20  1  0  0  0  0
  8 21  1  0  0  0  0
  9 10  2  0  0  0  0
  9 22  1  0  0  0  0
M  END
$$$$
