
 OpenBabel05052217073D

 20 20  0  0  1  0  0  0  0  0999 V2000
    3.3198    0.1340    1.1939 C   0  0  0  0  0  0  0  0  0  0  0  0
    2.7068    0.0814   -0.1972 C   0  0  3  0  0  0  0  0  0  0  0  0
    1.1936    0.3003   -0.0878 C   0  0  0  0  0  0  0  0  0  0  0  0
    0.6168    1.3719   -0.2627 O   0  0  0  0  0  0  0  0  0  0  0  0
    3.3303    1.0200   -1.1084 N   0  0  0  0  0  0  0  0  0  0  0  0
    3.3728    2.4878   -0.9736 C   0  0  0  0  0  0  0  0  0  0  0  0
    2.9436    2.5915   -2.4584 C   0  0  3  0  0  0  0  0  0  0  0  0
    2.9371    1.0353   -2.4190 C   0  0  0  0  0  0  0  0  0  0  0  0
    2.5283    0.1365   -3.1199 O   0  0  0  0  0  0  0  0  0  0  0  0
    1.5923    3.1852   -2.5296 N   0  0  0  0  0  0  0  0  0  0  0  0
    2.8352   -0.5861    1.8621 H   0  0  0  0  0  0  0  0  0  0  0  0
    3.2039    1.1265    1.6442 H   0  0  0  0  0  0  0  0  0  0  0  0
    4.3899   -0.0941    1.1594 H   0  0  0  0  0  0  0  0  0  0  0  0
    2.8448   -0.9195   -0.6242 H   0  0  0  0  0  0  0  0  0  0  0  0
    0.6200   -0.5971    0.2019 H   0  0  0  0  0  0  0  0  0  0  0  0
    4.3898    2.8419   -0.7732 H   0  0  0  0  0  0  0  0  0  0  0  0
    2.6997    2.8934   -0.2129 H   0  0  0  0  0  0  0  0  0  0  0  0
    3.6787    3.0288   -3.1376 H   0  0  0  0  0  0  0  0  0  0  0  0
    0.9645    2.7889   -1.8131 H   0  0  0  0  0  0  0  0  0  0  0  0
    1.1215    2.9629   -3.4080 H   0  0  0  0  0  0  0  0  0  0  0  0
  1  2  1  0  0  0  0
  1 11  1  0  0  0  0
  1 12  1  0  0  0  0
  1 13  1  0  0  0  0
  2  3  1  0  0  0  0
  2  5  1  0  0  0  0
  2 14  1  0  0  0  0
  3  4  2  0  0  0  0
  3 15  1  0  0  0  0
  5  6  1  0  0  0  0
  5  8  1  0  0  0  0
  6  7  1  0  0  0  0
  6 16  1  0  0  0  0
  6 17  1  0  0  0  0
  7  8  1  0  0  0  0
  7 10  1  0  0  0  0
  7 18  1  0  0  0  0
  8  9  2  0  0  0  0
 10 19  1  0  0  0  0
 10 20  1  0  0  0  0
M  END
$$$$
