
 OpenBabel05052217073D

  3  2  0  0  0  0  0  0  0  0999 V2000
    0.9582   -0.0459   -0.0611 O   0  0  0  0  0  0  0  0  0  0  0  0
    1.9261   -0.0656   -0.1032 H   0  0  0  0  0  0  0  0  0  0  0  0
    0.6794   -0.4398   -0.9014 H   0  0  0  0  0  0  0  0  0  0  0  0
  1  2  1  0  0  0  0
  1  3  1  0  0  0  0
M  END
$$$$
