
 OpenBabel05052217073D

 23 22  0  0  0  0  0  0  0  0999 V2000
    0.8773   -0.0090    0.0311 C   0  0  0  0  0  0  0  0  0  0  0  0
    2.4106    0.0376    0.0052 C   0  0  0  0  0  0  0  0  0  0  0  0
    2.9459    0.9075    1.1477 C   0  0  0  0  0  0  0  0  0  0  0  0
    2.9493   -1.3953    0.1736 C   0  0  0  0  0  0  0  0  0  0  0  0
    3.0048    0.6737   -1.6299 S   0  0  0  0  0  0  0  0  0  0  0  0
    2.2437    2.3405   -1.6798 C   0  0  0  0  0  0  0  0  0  0  0  0
    2.5698    3.0422   -3.0075 C   0  0  0  0  0  0  0  0  0  0  0  0
    1.9716    4.3798   -3.0520 N   0  0  0  0  0  0  0  0  0  0  0  0
    0.5189   -0.4346    0.9762 H   0  0  0  0  0  0  0  0  0  0  0  0
    0.4793   -0.6305   -0.7791 H   0  0  0  0  0  0  0  0  0  0  0  0
    0.4292    0.9852   -0.0462 H   0  0  0  0  0  0  0  0  0  0  0  0
    2.6107    0.5208    2.1171 H   0  0  0  0  0  0  0  0  0  0  0  0
    2.5922    1.9413    1.0868 H   0  0  0  0  0  0  0  0  0  0  0  0
    4.0421    0.9208    1.1649 H   0  0  0  0  0  0  0  0  0  0  0  0
    2.6020   -1.8290    1.1194 H   0  0  0  0  0  0  0  0  0  0  0  0
    4.0461   -1.4222    0.1917 H   0  0  0  0  0  0  0  0  0  0  0  0
    2.6055   -2.0603   -0.6289 H   0  0  0  0  0  0  0  0  0  0  0  0
    2.6236    2.9423   -0.8493 H   0  0  0  0  0  0  0  0  0  0  0  0
    1.1582    2.2519   -1.5891 H   0  0  0  0  0  0  0  0  0  0  0  0
    2.1866    2.4578   -3.8496 H   0  0  0  0  0  0  0  0  0  0  0  0
    3.6532    3.1403   -3.1231 H   0  0  0  0  0  0  0  0  0  0  0  0
    0.9573    4.3054   -3.0408 H   0  0  0  0  0  0  0  0  0  0  0  0
    2.2109    4.8139   -3.9459 H   0  0  0  0  0  0  0  0  0  0  0  0
  1  2  1  0  0  0  0
  1  9  1  0  0  0  0
  1 10  1  0  0  0  0
  1 11  1  0  0  0  0
  2  3  1  0  0  0  0
  2  4  1  0  0  0  0
  2  5  1  0  0  0  0
  3 12  1  0  0  0  0
  3 13  1  0  0  0  0
  3 14  1  0  0  0  0
  4 15  1  0  0  0  0
  4 16  1  0  0  0  0
  4 17  1  0  0  0  0
  5  6  1  0  0  0  0
  6  7  1  0  0  0  0
  6 18  1  0  0  0  0
  6 19  1  0  0  0  0
  7  8  1  0  0  0  0
  7 20  1  0  0  0  0
  7 21  1  0  0  0  0
  8 22  1  0  0  0  0
  8 23  1  0  0  0  0
M  END
$$$$
