
 OpenBabel05052217073D

 15 15  0  0  1  0  0  0  0  0999 V2000
    0.9508   -0.0408    0.0661 C   0  0  0  0  0  0  0  0  0  0  0  0
    0.2168    0.7170   -0.5508 O   0  0  0  0  0  0  0  0  0  0  0  0
    2.3169    0.0570    0.1005 N   0  0  0  0  0  0  0  0  0  0  0  0
    3.0269    1.0908   -0.6950 C   0  0  3  0  0  0  0  0  0  0  0  0
    2.8063    2.5929   -0.3434 C   0  0  3  0  0  0  0  0  0  0  0  0
    4.2697    2.7373   -0.3623 N   0  0  0  0  0  0  0  0  0  0  0  0
    4.4891    1.3971   -0.2814 C   0  0  0  0  0  0  0  0  0  0  0  0
    5.4499    0.7767    0.1061 O   0  0  0  0  0  0  0  0  0  0  0  0
    2.2529    2.9828    1.3558 S   0  0  0  0  0  0  0  0  0  0  0  0
    0.5752   -0.8908    0.6596 H   0  0  0  0  0  0  0  0  0  0  0  0
    2.8425   -0.6792    0.5609 H   0  0  0  0  0  0  0  0  0  0  0  0
    2.9527    0.8675   -1.7673 H   0  0  0  0  0  0  0  0  0  0  0  0
    2.3155    3.1781   -1.1261 H   0  0  0  0  0  0  0  0  0  0  0  0
    4.8210    3.3391    0.2344 H   0  0  0  0  0  0  0  0  0  0  0  0
    2.8392    1.9576    1.9901 H   0  0  0  0  0  0  0  0  0  0  0  0
  1  2  2  0  0  0  0
  1  3  1  0  0  0  0
  1 10  1  0  0  0  0
  3  4  1  0  0  0  0
  3 11  1  0  0  0  0
  4  5  1  0  0  0  0
  4  7  1  0  0  0  0
  4 12  1  0  0  0  0
  5  6  1  0  0  0  0
  5  9  1  0  0  0  0
  5 13  1  0  0  0  0
  6  7  1  0  0  0  0
  6 14  1  0  0  0  0
  7  8  2  0  0  0  0
  9 15  1  0  0  0  0
M  END
$$$$
