
 OpenBabel05052217073D

 14 13  0  0  0  0  0  0  0  0999 V2000
    1.0160   -0.0674    0.0708 C   0  0  0  0  0  0  0  0  0  0  0  0
    2.5293   -0.1896    0.0507 C   0  0  0  0  0  0  0  0  0  0  0  0
    3.0063   -1.9210   -0.2474 S   0  0  0  0  0  0  0  0  0  0  0  0
    4.8023   -1.7355   -0.2053 C   0  0  0  0  0  0  0  0  0  0  0  0
    5.2310   -0.8715   -1.2828 N   0  0  0  0  0  0  0  0  0  0  0  0
    0.7307    0.9756    0.2454 H   0  0  0  0  0  0  0  0  0  0  0  0
    0.5726   -0.6716    0.8696 H   0  0  0  0  0  0  0  0  0  0  0  0
    0.5765   -0.3740   -0.8852 H   0  0  0  0  0  0  0  0  0  0  0  0
    2.9424    0.1421    1.0077 H   0  0  0  0  0  0  0  0  0  0  0  0
    2.9276    0.4470   -0.7448 H   0  0  0  0  0  0  0  0  0  0  0  0
    5.2479   -2.7271   -0.3250 H   0  0  0  0  0  0  0  0  0  0  0  0
    5.1188   -1.3401    0.7653 H   0  0  0  0  0  0  0  0  0  0  0  0
    4.8065   -1.2160   -2.1413 H   0  0  0  0  0  0  0  0  0  0  0  0
    6.2372   -0.9604   -1.4029 H   0  0  0  0  0  0  0  0  0  0  0  0
  1  2  1  0  0  0  0
  1  6  1  0  0  0  0
  1  7  1  0  0  0  0
  1  8  1  0  0  0  0
  2  3  1  0  0  0  0
  2  9  1  0  0  0  0
  2 10  1  0  0  0  0
  3  4  1  0  0  0  0
  4  5  1  0  0  0  0
  4 11  1  0  0  0  0
  4 12  1  0  0  0  0
  5 13  1  0  0  0  0
  5 14  1  0  0  0  0
M  END
$$$$
