
 OpenBabel05052217073D

 13 12  0  0  0  0  0  0  0  0999 V2000
    0.9401   -0.0757   -0.0441 C   0  0  0  0  0  0  0  0  0  0  0  0
    2.4607   -0.0707   -0.0406 C   0  0  0  0  0  0  0  0  0  0  0  0
    2.9655   -0.8665   -1.1584 N   0  0  0  0  0  0  0  0  0  0  0  0
    4.4224   -0.8737   -1.1724 C   0  0  0  0  0  0  0  0  0  0  0  0
    0.5607    0.5183    0.7935 H   0  0  0  0  0  0  0  0  0  0  0  0
    0.5470   -1.0930    0.0585 H   0  0  0  0  0  0  0  0  0  0  0  0
    0.5427    0.3546   -0.9695 H   0  0  0  0  0  0  0  0  0  0  0  0
    2.8143   -0.4867    0.9102 H   0  0  0  0  0  0  0  0  0  0  0  0
    2.8162    0.9633   -0.1138 H   0  0  0  0  0  0  0  0  0  0  0  0
    2.6215   -0.4779   -2.0367 H   0  0  0  0  0  0  0  0  0  0  0  0
    4.8234   -1.3159   -0.2545 H   0  0  0  0  0  0  0  0  0  0  0  0
    4.8276    0.1367   -1.2897 H   0  0  0  0  0  0  0  0  0  0  0  0
    4.7773   -1.4791   -2.0118 H   0  0  0  0  0  0  0  0  0  0  0  0
  1  2  1  0  0  0  0
  1  5  1  0  0  0  0
  1  6  1  0  0  0  0
  1  7  1  0  0  0  0
  2  3  1  0  0  0  0
  2  8  1  0  0  0  0
  2  9  1  0  0  0  0
  3  4  1  0  0  0  0
  3 10  1  0  0  0  0
  4 11  1  0  0  0  0
  4 12  1  0  0  0  0
  4 13  1  0  0  0  0
M  END
$$$$
