
 OpenBabel05052217073D

 11 10  0  0  0  0  0  0  0  0999 V2000
    1.0258   -0.0535    0.0750 C   0  0  0  0  0  0  0  0  0  0  0  0
    0.4988    1.3719    0.1047 C   0  0  0  0  0  0  0  0  0  0  0  0
   -1.3195    1.3723    0.1261 S   0  0  0  0  0  0  0  0  0  0  0  0
    2.5323   -0.0833    0.0653 C   0  0  0  0  0  0  0  0  0  0  0  0
    3.2463    0.9143    0.0580 O   0  0  0  0  0  0  0  0  0  0  0  0
    0.6851   -0.5827   -0.8219 H   0  0  0  0  0  0  0  0  0  0  0  0
    0.6959   -0.6145    0.9567 H   0  0  0  0  0  0  0  0  0  0  0  0
    0.8382    1.9338   -0.7717 H   0  0  0  0  0  0  0  0  0  0  0  0
    0.8549    1.8990    0.9958 H   0  0  0  0  0  0  0  0  0  0  0  0
   -1.4931    0.8239   -1.0856 H   0  0  0  0  0  0  0  0  0  0  0  0
    2.9798   -1.0920    0.0579 H   0  0  0  0  0  0  0  0  0  0  0  0
  1  2  1  0  0  0  0
  1  4  1  0  0  0  0
  1  6  1  0  0  0  0
  1  7  1  0  0  0  0
  2  3  1  0  0  0  0
  2  8  1  0  0  0  0
  2  9  1  0  0  0  0
  3 10  1  0  0  0  0
  4  5  2  0  0  0  0
  4 11  1  0  0  0  0
M  END
$$$$
