
 OpenBabel05052217073D

 22 21  0  0  0  0  0  0  0  0999 V2000
    2.4515    0.0705   -1.3919 C   0  0  0  0  0  0  0  0  0  0  0  0
    2.6571   -0.0607    0.1060 C   0  0  0  0  0  0  0  0  0  0  0  0
    3.2450   -1.3313    0.4715 N   0  0  0  0  0  0  0  0  0  0  0  0
    4.6092   -1.5347    0.4738 C   0  0  0  0  0  0  0  0  0  0  0  0
    5.4270   -0.6921    0.1111 O   0  0  0  0  0  0  0  0  0  0  0  0
    5.0262   -2.9463    0.8847 C   0  0  0  0  0  0  0  0  0  0  0  0
    5.1899   -3.7874   -0.2832 N   0  0  0  0  0  0  0  0  0  0  0  0
    4.1145   -4.4457   -0.8276 C   0  0  0  0  0  0  0  0  0  0  0  0
    2.9837   -4.3851   -0.3527 O   0  0  0  0  0  0  0  0  0  0  0  0
    4.4343   -5.2598   -2.0530 C   0  0  0  0  0  0  0  0  0  0  0  0
    2.0118    1.0442   -1.6307 H   0  0  0  0  0  0  0  0  0  0  0  0
    1.7782   -0.7090   -1.7628 H   0  0  0  0  0  0  0  0  0  0  0  0
    3.3988   -0.0194   -1.9326 H   0  0  0  0  0  0  0  0  0  0  0  0
    1.6965    0.0129    0.6255 H   0  0  0  0  0  0  0  0  0  0  0  0
    3.3024    0.7486    0.4652 H   0  0  0  0  0  0  0  0  0  0  0  0
    2.6532   -2.1605    0.4759 H   0  0  0  0  0  0  0  0  0  0  0  0
    4.2886   -3.3793    1.5686 H   0  0  0  0  0  0  0  0  0  0  0  0
    5.9872   -2.8917    1.4057 H   0  0  0  0  0  0  0  0  0  0  0  0
    6.0227   -3.6508   -0.8426 H   0  0  0  0  0  0  0  0  0  0  0  0
    5.4759   -5.1359   -2.3629 H   0  0  0  0  0  0  0  0  0  0  0  0
    3.7875   -4.9418   -2.8749 H   0  0  0  0  0  0  0  0  0  0  0  0
    4.2616   -6.3173   -1.8339 H   0  0  0  0  0  0  0  0  0  0  0  0
  1  2  1  0  0  0  0
  1 11  1  0  0  0  0
  1 12  1  0  0  0  0
  1 13  1  0  0  0  0
  2  3  1  0  0  0  0
  2 14  1  0  0  0  0
  2 15  1  0  0  0  0
  3  4  1  0  0  0  0
  3 16  1  0  0  0  0
  4  5  2  0  0  0  0
  4  6  1  0  0  0  0
  6  7  1  0  0  0  0
  6 17  1  0  0  0  0
  6 18  1  0  0  0  0
  7  8  1  0  0  0  0
  7 19  1  0  0  0  0
  8  9  2  0  0  0  0
  8 10  1  0  0  0  0
 10 20  1  0  0  0  0
 10 21  1  0  0  0  0
 10 22  1  0  0  0  0
M  END
$$$$
