
 OpenBabel05052217073D

 15 15  0  0  1  0  0  0  0  0999 V2000
    1.0005    0.1213   -0.0183 C   0  0  0  0  0  0  0  0  0  0  0  0
    2.5183    0.0721   -0.0246 C   0  0  3  0  0  0  0  0  0  0  0  0
    3.1487    1.1008    0.9155 C   0  0  0  0  0  0  0  0  0  0  0  0
    4.5327    0.6823    1.1554 N   0  0  0  0  0  0  0  0  0  0  0  0
    4.4960   -0.7298    1.5226 C   0  0  0  0  0  0  0  0  0  0  0  0
    3.1432   -1.5078    0.6130 S   0  0  0  0  0  0  0  0  0  0  0  0
    0.6513    1.0806   -0.4161 H   0  0  0  0  0  0  0  0  0  0  0  0
    0.5911    0.0153    0.9925 H   0  0  0  0  0  0  0  0  0  0  0  0
    0.5747   -0.6708   -0.6439 H   0  0  0  0  0  0  0  0  0  0  0  0
    2.8958    0.2016   -1.0452 H   0  0  0  0  0  0  0  0  0  0  0  0
    2.6051    1.1690    1.8674 H   0  0  0  0  0  0  0  0  0  0  0  0
    3.1309    2.0965    0.4606 H   0  0  0  0  0  0  0  0  0  0  0  0
    4.9451    1.2247    1.9108 H   0  0  0  0  0  0  0  0  0  0  0  0
    4.3085   -0.8461    2.5953 H   0  0  0  0  0  0  0  0  0  0  0  0
    5.4456   -1.2152    1.2818 H   0  0  0  0  0  0  0  0  0  0  0  0
  1  2  1  0  0  0  0
  1  7  1  0  0  0  0
  1  8  1  0  0  0  0
  1  9  1  0  0  0  0
  2  3  1  0  0  0  0
  2  6  1  0  0  0  0
  2 10  1  0  0  0  0
  3  4  1  0  0  0  0
  3 11  1  0  0  0  0
  3 12  1  0  0  0  0
  4  5  1  0  0  0  0
  4 13  1  0  0  0  0
  5  6  1  0  0  0  0
  5 14  1  0  0  0  0
  5 15  1  0  0  0  0
M  END
$$$$
