
 OpenBabel05052217073D

 18 17  0  0  0  0  0  0  0  0999 V2000
    1.1126   -0.0199    0.0317 C   0  0  0  0  0  0  0  0  0  0  0  0
    0.5755    0.6373    1.3050 C   0  0  0  0  0  0  0  0  0  0  0  0
    1.1788    2.3468    1.4892 S   0  0  0  0  0  0  0  0  0  0  0  0
    2.5535   -0.1719    0.0259 N   0  0  0  0  0  0  0  0  0  0  0  0
    3.1966   -1.2149    0.6539 C   0  0  0  0  0  0  0  0  0  0  0  0
    2.6075   -2.1079    1.2576 O   0  0  0  0  0  0  0  0  0  0  0  0
    4.7250   -1.1436    0.5675 C   0  0  0  0  0  0  0  0  0  0  0  0
    5.1603   -0.3160   -0.5761 N   0  0  0  0  0  0  0  0  0  0  0  0
    0.8396    0.5601   -0.8567 H   0  0  0  0  0  0  0  0  0  0  0  0
    0.6642   -1.0134   -0.0700 H   0  0  0  0  0  0  0  0  0  0  0  0
    0.8742    0.0709    2.1926 H   0  0  0  0  0  0  0  0  0  0  0  0
   -0.5178    0.6655    1.2718 H   0  0  0  0  0  0  0  0  0  0  0  0
    2.4785    2.0286    1.5783 H   0  0  0  0  0  0  0  0  0  0  0  0
    3.1525    0.5549   -0.3590 H   0  0  0  0  0  0  0  0  0  0  0  0
    5.1169   -2.1584    0.4533 H   0  0  0  0  0  0  0  0  0  0  0  0
    5.1009   -0.7087    1.4991 H   0  0  0  0  0  0  0  0  0  0  0  0
    4.7810   -0.7374   -1.4293 H   0  0  0  0  0  0  0  0  0  0  0  0
    6.1723   -0.4047   -0.6640 H   0  0  0  0  0  0  0  0  0  0  0  0
  1  2  1  0  0  0  0
  1  4  1  0  0  0  0
  1  9  1  0  0  0  0
  1 10  1  0  0  0  0
  2  3  1  0  0  0  0
  2 11  1  0  0  0  0
  2 12  1  0  0  0  0
  3 13  1  0  0  0  0
  4  5  1  0  0  0  0
  4 14  1  0  0  0  0
  5  6  2  0  0  0  0
  5  7  1  0  0  0  0
  7  8  1  0  0  0  0
  7 15  1  0  0  0  0
  7 16  1  0  0  0  0
  8 17  1  0  0  0  0
  8 18  1  0  0  0  0
M  END
$$$$
