
 OpenBabel05052217073D

 21 20  0  0  1  0  0  0  0  0999 V2000
    2.9084    0.6440   -1.2797 C   0  0  0  0  0  0  0  0  0  0  0  0
    2.5636    0.0298    0.0718 C   0  0  0  0  0  0  0  0  0  0  0  0
    3.0265    0.9001    1.2454 C   0  0  3  0  0  0  0  0  0  0  0  0
    2.5495    0.3266    2.5931 C   0  0  0  0  0  0  0  0  0  0  0  0
    1.8781   -0.6863    2.7216 O   0  0  0  0  0  0  0  0  0  0  0  0
    2.9085    1.0878    3.6574 O   0  0  0  0  0  0  0  0  0  0  0  0
    4.4863    1.0398    1.2428 N   0  0  0  0  0  0  0  0  0  0  0  0
    5.1119    2.1163    1.8116 C   0  0  0  0  0  0  0  0  0  0  0  0
    4.4804    2.9653    2.4350 O   0  0  0  0  0  0  0  0  0  0  0  0
    6.6086    2.1335    1.6734 C   0  0  0  0  0  0  0  0  0  0  0  0
    2.5889   -0.0211   -2.0884 H   0  0  0  0  0  0  0  0  0  0  0  0
    3.9854    0.8045   -1.3864 H   0  0  0  0  0  0  0  0  0  0  0  0
    2.4034    1.6061   -1.4116 H   0  0  0  0  0  0  0  0  0  0  0  0
    3.0169   -0.9670    0.1383 H   0  0  0  0  0  0  0  0  0  0  0  0
    1.4775   -0.1130    0.1231 H   0  0  0  0  0  0  0  0  0  0  0  0
    2.5715    1.8946    1.1509 H   0  0  0  0  0  0  0  0  0  0  0  0
    3.3846    1.9122    3.3914 H   0  0  0  0  0  0  0  0  0  0  0  0
    5.0358    0.2075    1.0577 H   0  0  0  0  0  0  0  0  0  0  0  0
    6.9594    1.3316    1.0174 H   0  0  0  0  0  0  0  0  0  0  0  0
    7.0591    2.0041    2.6594 H   0  0  0  0  0  0  0  0  0  0  0  0
    6.9193    3.0901    1.2436 H   0  0  0  0  0  0  0  0  0  0  0  0
  1  2  1  0  0  0  0
  1 11  1  0  0  0  0
  1 12  1  0  0  0  0
  1 13  1  0  0  0  0
  2  3  1  0  0  0  0
  2 14  1  0  0  0  0
  2 15  1  0  0  0  0
  3  4  1  0  0  0  0
  3  7  1  0  0  0  0
  3 16  1  0  0  0  0
  4  5  2  0  0  0  0
  4  6  1  0  0  0  0
  6 17  1  0  0  0  0
  7  8  1  0  0  0  0
  7 18  1  0  0  0  0
  8  9  2  0  0  0  0
  8 10  1  0  0  0  0
 10 19  1  0  0  0  0
 10 20  1  0  0  0  0
 10 21  1  0  0  0  0
M  END
$$$$
