
 OpenBabel05052217073D

 20 19  0  0  0  0  0  0  0  0999 V2000
    1.9844    1.2099    2.9161 C   0  0  0  0  0  0  0  0  0  0  0  0
    2.5680    0.5373    1.9148 C   0  0  0  0  0  0  0  0  0  0  0  0
    3.1082    1.1738    0.6683 C   0  0  0  0  0  0  0  0  0  0  0  0
    4.5887    0.8552    0.5103 C   0  0  0  0  0  0  0  0  0  0  0  0
    4.9908   -0.1413   -0.0855 O   0  0  0  0  0  0  0  0  0  0  0  0
    5.4320    1.7677    1.1051 N   0  0  0  0  0  0  0  0  0  0  0  0
    6.8778    1.6361    1.0411 C   0  0  0  0  0  0  0  0  0  0  0  0
    7.4840    2.2752   -0.2083 C   0  0  0  0  0  0  0  0  0  0  0  0
    7.2048    4.0773   -0.2447 S   0  0  0  0  0  0  0  0  0  0  0  0
    1.6054    0.6845    3.7880 H   0  0  0  0  0  0  0  0  0  0  0  0
    1.8599    2.2878    2.8906 H   0  0  0  0  0  0  0  0  0  0  0  0
    2.6574   -0.5461    1.9855 H   0  0  0  0  0  0  0  0  0  0  0  0
    2.9643    2.2604    0.6680 H   0  0  0  0  0  0  0  0  0  0  0  0
    2.5798    0.7813   -0.2079 H   0  0  0  0  0  0  0  0  0  0  0  0
    5.0398    2.5559    1.6048 H   0  0  0  0  0  0  0  0  0  0  0  0
    7.1332    0.5703    1.0568 H   0  0  0  0  0  0  0  0  0  0  0  0
    7.2884    2.0857    1.9522 H   0  0  0  0  0  0  0  0  0  0  0  0
    7.0528    1.8440   -1.1175 H   0  0  0  0  0  0  0  0  0  0  0  0
    8.5643    2.1001   -0.2273 H   0  0  0  0  0  0  0  0  0  0  0  0
    5.8688    4.0106   -0.3338 H   0  0  0  0  0  0  0  0  0  0  0  0
  1  2  2  0  0  0  0
  1 10  1  0  0  0  0
  1 11  1  0  0  0  0
  2  3  1  0  0  0  0
  2 12  1  0  0  0  0
  3  4  1  0  0  0  0
  3 13  1  0  0  0  0
  3 14  1  0  0  0  0
  4  5  2  0  0  0  0
  4  6  1  0  0  0  0
  6  7  1  0  0  0  0
  6 15  1  0  0  0  0
  7  8  1  0  0  0  0
  7 16  1  0  0  0  0
  7 17  1  0  0  0  0
  8  9  1  0  0  0  0
  8 18  1  0  0  0  0
  8 19  1  0  0  0  0
  9 20  1  0  0  0  0
M  END
$$$$
