
 OpenBabel05052217073D

 21 20  0  0  0  0  0  0  0  0999 V2000
    2.9386    1.0256   -1.0625 C   0  0  0  0  0  0  0  0  0  0  0  0
    2.5012   -0.0388   -0.0530 C   0  0  0  0  0  0  0  0  0  0  0  0
    0.9760   -0.0426    0.0672 C   0  0  0  0  0  0  0  0  0  0  0  0
    2.9980   -1.4372   -0.4522 C   0  0  0  0  0  0  0  0  0  0  0  0
    4.4444   -1.5285   -0.4864 N   0  0  0  0  0  0  0  0  0  0  0  0
    5.1860   -1.8107    0.6372 C   0  0  0  0  0  0  0  0  0  0  0  0
    4.6975   -2.0441    1.7377 O   0  0  0  0  0  0  0  0  0  0  0  0
    6.6744   -1.8255    0.4078 C   0  0  0  0  0  0  0  0  0  0  0  0
    2.5658    2.0129   -0.7691 H   0  0  0  0  0  0  0  0  0  0  0  0
    2.5561    0.8039   -2.0645 H   0  0  0  0  0  0  0  0  0  0  0  0
    4.0298    1.0916   -1.1220 H   0  0  0  0  0  0  0  0  0  0  0  0
    2.9221    0.2268    0.9245 H   0  0  0  0  0  0  0  0  0  0  0  0
    0.5024   -0.3075   -0.8844 H   0  0  0  0  0  0  0  0  0  0  0  0
    0.6061    0.9440    0.3654 H   0  0  0  0  0  0  0  0  0  0  0  0
    0.6472   -0.7649    0.8217 H   0  0  0  0  0  0  0  0  0  0  0  0
    2.6365   -1.7087   -1.4502 H   0  0  0  0  0  0  0  0  0  0  0  0
    2.6201   -2.1848    0.2549 H   0  0  0  0  0  0  0  0  0  0  0  0
    4.9185   -1.2635   -1.3394 H   0  0  0  0  0  0  0  0  0  0  0  0
    6.9328   -1.5359   -0.6145 H   0  0  0  0  0  0  0  0  0  0  0  0
    7.0537   -2.8346    0.5908 H   0  0  0  0  0  0  0  0  0  0  0  0
    7.1488   -1.1213    1.0966 H   0  0  0  0  0  0  0  0  0  0  0  0
  1  2  1  0  0  0  0
  1  9  1  0  0  0  0
  1 10  1  0  0  0  0
  1 11  1  0  0  0  0
  2  3  1  0  0  0  0
  2  4  1  0  0  0  0
  2 12  1  0  0  0  0
  3 13  1  0  0  0  0
  3 14  1  0  0  0  0
  3 15  1  0  0  0  0
  4  5  1  0  0  0  0
  4 16  1  0  0  0  0
  4 17  1  0  0  0  0
  5  6  1  0  0  0  0
  5 18  1  0  0  0  0
  6  7  2  0  0  0  0
  6  8  1  0  0  0  0
  8 19  1  0  0  0  0
  8 20  1  0  0  0  0
  8 21  1  0  0  0  0
M  END
$$$$
