
 OpenBabel05052217073D

 18 17  0  0  1  0  0  0  0  0999 V2000
    1.0072    0.0741   -0.1181 C   0  0  0  0  0  0  0  0  0  0  0  0
    2.5395    0.0139   -0.0734 C   0  0  0  0  0  0  0  0  0  0  0  0
    3.0680    1.4156    0.2646 C   0  0  0  0  0  0  0  0  0  0  0  0
    3.0579   -1.0387    0.9346 C   0  0  3  0  0  0  0  0  0  0  0  0
    2.5794   -2.4540    0.5826 C   0  0  0  0  0  0  0  0  0  0  0  0
    3.3263   -3.3962    0.3312 O   0  0  0  0  0  0  0  0  0  0  0  0
    4.5350   -1.0300    0.9822 N   0  0  0  0  0  0  0  0  0  0  0  0
    0.6702    0.8777   -0.7831 H   0  0  0  0  0  0  0  0  0  0  0  0
    0.5879    0.2623    0.8760 H   0  0  0  0  0  0  0  0  0  0  0  0
    0.5785   -0.8560   -0.5023 H   0  0  0  0  0  0  0  0  0  0  0  0
    2.8883   -0.2495   -1.0813 H   0  0  0  0  0  0  0  0  0  0  0  0
    2.7593    1.7189    1.2710 H   0  0  0  0  0  0  0  0  0  0  0  0
    2.6849    2.1572   -0.4443 H   0  0  0  0  0  0  0  0  0  0  0  0
    4.1604    1.4582    0.2162 H   0  0  0  0  0  0  0  0  0  0  0  0
    2.6827   -0.8170    1.9392 H   0  0  0  0  0  0  0  0  0  0  0  0
    1.4871   -2.6054    0.6137 H   0  0  0  0  0  0  0  0  0  0  0  0
    4.8880   -1.3062    0.0628 H   0  0  0  0  0  0  0  0  0  0  0  0
    4.8414   -1.7894    1.5945 H   0  0  0  0  0  0  0  0  0  0  0  0
  1  2  1  0  0  0  0
  1  8  1  0  0  0  0
  1  9  1  0  0  0  0
  1 10  1  0  0  0  0
  2  3  1  0  0  0  0
  2  4  1  0  0  0  0
  2 11  1  0  0  0  0
  3 12  1  0  0  0  0
  3 13  1  0  0  0  0
  3 14  1  0  0  0  0
  4  5  1  0  0  0  0
  4  7  1  0  0  0  0
  4 15  1  0  0  0  0
  5  6  2  0  0  0  0
  5 16  1  0  0  0  0
  7 17  1  0  0  0  0
  7 18  1  0  0  0  0
M  END
$$$$
