
 OpenBabel05052217073D

 20 20  0  0  1  0  0  0  0  0999 V2000
    0.9190    0.2230   -0.0858 C   0  0  0  0  0  0  0  0  0  0  0  0
    2.4295    0.0712   -0.0558 C   0  0  3  0  0  0  0  0  0  0  0  0
    3.1211    1.0757    0.8654 C   0  0  0  0  0  0  0  0  0  0  0  0
    4.4924    0.6009    1.0823 N   0  0  0  0  0  0  0  0  0  0  0  0
    4.4214   -0.8308    1.4283 C   0  0  3  0  0  0  0  0  0  0  0  0
    2.9297   -1.5214    0.6445 S   0  0  0  0  0  0  0  0  0  0  0  0
    5.6850   -1.5838    0.9419 C   0  0  0  0  0  0  0  0  0  0  0  0
    6.9312   -1.0792    1.5469 N   0  0  0  0  0  0  0  0  0  0  0  0
    0.6430    1.1904   -0.5199 H   0  0  0  0  0  0  0  0  0  0  0  0
    0.4795    0.1736    0.9167 H   0  0  0  0  0  0  0  0  0  0  0  0
    0.4551   -0.5572   -0.6999 H   0  0  0  0  0  0  0  0  0  0  0  0
    2.8326    0.1399   -1.0726 H   0  0  0  0  0  0  0  0  0  0  0  0
    2.5965    1.1775    1.8247 H   0  0  0  0  0  0  0  0  0  0  0  0
    3.1407    2.0672    0.4009 H   0  0  0  0  0  0  0  0  0  0  0  0
    4.9207    1.0989    1.8615 H   0  0  0  0  0  0  0  0  0  0  0  0
    4.3114   -0.9435    2.5131 H   0  0  0  0  0  0  0  0  0  0  0  0
    5.7794   -1.4913   -0.1481 H   0  0  0  0  0  0  0  0  0  0  0  0
    5.5994   -2.6510    1.1752 H   0  0  0  0  0  0  0  0  0  0  0  0
    7.0034   -0.0869    1.3115 H   0  0  0  0  0  0  0  0  0  0  0  0
    7.7203   -1.5330    1.0913 H   0  0  0  0  0  0  0  0  0  0  0  0
  1  2  1  0  0  0  0
  1  9  1  0  0  0  0
  1 10  1  0  0  0  0
  1 11  1  0  0  0  0
  2  3  1  0  0  0  0
  2  6  1  0  0  0  0
  2 12  1  0  0  0  0
  3  4  1  0  0  0  0
  3 13  1  0  0  0  0
  3 14  1  0  0  0  0
  4  5  1  0  0  0  0
  4 15  1  0  0  0  0
  5  6  1  0  0  0  0
  5  7  1  0  0  0  0
  5 16  1  0  0  0  0
  7  8  1  0  0  0  0
  7 17  1  0  0  0  0
  7 18  1  0  0  0  0
  8 19  1  0  0  0  0
  8 20  1  0  0  0  0
M  END
$$$$
