
 OpenBabel05052217073D

 20 19  0  0  1  0  0  0  0  0999 V2000
    3.0437    0.2802   -1.3156 C   0  0  0  0  0  0  0  0  0  0  0  0
    2.5879    0.0527    0.1193 C   0  0  0  0  0  0  0  0  0  0  0  0
    3.0821    1.1391    1.0776 C   0  0  3  0  0  0  0  0  0  0  0  0
    2.5418    0.9074    2.4873 C   0  0  0  0  0  0  0  0  0  0  0  0
    1.4262    0.4534    2.7318 O   0  0  0  0  0  0  0  0  0  0  0  0
    4.5422    1.1689    1.1464 N   0  0  0  0  0  0  0  0  0  0  0  0
    5.2264    2.2973    1.5302 C   0  0  0  0  0  0  0  0  0  0  0  0
    4.6671    3.3393    1.8547 O   0  0  0  0  0  0  0  0  0  0  0  0
    6.7222    2.1447    1.5558 C   0  0  0  0  0  0  0  0  0  0  0  0
    2.6828   -0.5303   -1.9569 H   0  0  0  0  0  0  0  0  0  0  0  0
    4.1352    0.3039   -1.3925 H   0  0  0  0  0  0  0  0  0  0  0  0
    2.6501    1.2239   -1.7058 H   0  0  0  0  0  0  0  0  0  0  0  0
    2.9381   -0.9313    0.4547 H   0  0  0  0  0  0  0  0  0  0  0  0
    1.4918    0.0156    0.1337 H   0  0  0  0  0  0  0  0  0  0  0  0
    2.7311    2.1288    0.7615 H   0  0  0  0  0  0  0  0  0  0  0  0
    3.1691    1.2910    3.3114 H   0  0  0  0  0  0  0  0  0  0  0  0
    5.0533    0.3139    0.9636 H   0  0  0  0  0  0  0  0  0  0  0  0
    7.0360    1.1520    1.2210 H   0  0  0  0  0  0  0  0  0  0  0  0
    7.0770    2.2939    2.5797 H   0  0  0  0  0  0  0  0  0  0  0  0
    7.1713    2.8919    0.8957 H   0  0  0  0  0  0  0  0  0  0  0  0
  1  2  1  0  0  0  0
  1 10  1  0  0  0  0
  1 11  1  0  0  0  0
  1 12  1  0  0  0  0
  2  3  1  0  0  0  0
  2 13  1  0  0  0  0
  2 14  1  0  0  0  0
  3  4  1  0  0  0  0
  3  6  1  0  0  0  0
  3 15  1  0  0  0  0
  4  5  2  0  0  0  0
  4 16  1  0  0  0  0
  6  7  1  0  0  0  0
  6 17  1  0  0  0  0
  7  8  2  0  0  0  0
  7  9  1  0  0  0  0
  9 18  1  0  0  0  0
  9 19  1  0  0  0  0
  9 20  1  0  0  0  0
M  END
$$$$
