
 OpenBabel05052217073D

 23 22  0  0  1  0  0  0  0  0999 V2000
    1.0733    0.0759   -0.0729 C   0  0  0  0  0  0  0  0  0  0  0  0
    2.6041    0.0891    0.0024 C   0  0  0  0  0  0  0  0  0  0  0  0
    3.1707    0.3361   -1.4006 C   0  0  0  0  0  0  0  0  0  0  0  0
    3.1208    1.1494    0.9956 C   0  0  3  0  0  0  0  0  0  0  0  0
    2.6253    0.8624    2.4116 C   0  0  0  0  0  0  0  0  0  0  0  0
    2.8935   -0.1618    3.0408 O   0  0  0  0  0  0  0  0  0  0  0  0
    4.5808    1.1604    1.0417 N   0  0  0  0  0  0  0  0  0  0  0  0
    5.2637    2.2651    1.4845 C   0  0  0  0  0  0  0  0  0  0  0  0
    4.7097    3.3189    1.7839 O   0  0  0  0  0  0  0  0  0  0  0  0
    6.7547    2.0854    1.5852 C   0  0  0  0  0  0  0  0  0  0  0  0
    0.7297   -0.6359   -0.8312 H   0  0  0  0  0  0  0  0  0  0  0  0
    0.6812    1.0641   -0.3368 H   0  0  0  0  0  0  0  0  0  0  0  0
    0.6284   -0.2248    0.8805 H   0  0  0  0  0  0  0  0  0  0  0  0
    2.9333   -0.9074    0.3270 H   0  0  0  0  0  0  0  0  0  0  0  0
    2.8850    1.3269   -1.7701 H   0  0  0  0  0  0  0  0  0  0  0  0
    2.7979   -0.4122   -2.1078 H   0  0  0  0  0  0  0  0  0  0  0  0
    4.2634    0.2728   -1.4074 H   0  0  0  0  0  0  0  0  0  0  0  0
    2.7648    2.1471    0.7164 H   0  0  0  0  0  0  0  0  0  0  0  0
    2.0160    1.6598    2.8642 H   0  0  0  0  0  0  0  0  0  0  0  0
    5.0646    0.2723    0.9776 H   0  0  0  0  0  0  0  0  0  0  0  0
    7.0689    1.0934    1.2461 H   0  0  0  0  0  0  0  0  0  0  0  0
    7.0577    2.2087    2.6254 H   0  0  0  0  0  0  0  0  0  0  0  0
    7.2488    2.8365    0.9653 H   0  0  0  0  0  0  0  0  0  0  0  0
  1  2  1  0  0  0  0
  1 11  1  0  0  0  0
  1 12  1  0  0  0  0
  1 13  1  0  0  0  0
  2  3  1  0  0  0  0
  2  4  1  0  0  0  0
  2 14  1  0  0  0  0
  3 15  1  0  0  0  0
  3 16  1  0  0  0  0
  3 17  1  0  0  0  0
  4  5  1  0  0  0  0
  4  7  1  0  0  0  0
  4 18  1  0  0  0  0
  5  6  2  0  0  0  0
  5 19  1  0  0  0  0
  7  8  1  0  0  0  0
  7 20  1  0  0  0  0
  8  9  2  0  0  0  0
  8 10  1  0  0  0  0
 10 21  1  0  0  0  0
 10 22  1  0  0  0  0
 10 23  1  0  0  0  0
M  END
$$$$
