
 OpenBabel05052217073D

 13 12  0  0  0  0  0  0  0  0999 V2000
    1.0818    0.1505    0.0438 C   0  0  0  0  0  0  0  0  0  0  0  0
    2.5268    0.0842   -0.0118 N   0  0  0  0  0  0  0  0  0  0  0  0
    3.1742   -0.6260   -1.0943 C   0  0  0  0  0  0  0  0  0  0  0  0
    3.5613    0.4950   -2.4564 S   0  0  0  0  0  0  0  0  0  0  0  0
    3.2657    0.6646    0.9974 C   0  0  0  0  0  0  0  0  0  0  0  0
    2.8006    1.2340    1.9763 O   0  0  0  0  0  0  0  0  0  0  0  0
    0.6333   -0.2673   -0.8606 H   0  0  0  0  0  0  0  0  0  0  0  0
    0.7733    1.1938    0.1570 H   0  0  0  0  0  0  0  0  0  0  0  0
    0.7395   -0.4122    0.9182 H   0  0  0  0  0  0  0  0  0  0  0  0
    2.5301   -1.4393   -1.4432 H   0  0  0  0  0  0  0  0  0  0  0  0
    4.1118   -1.0617   -0.7350 H   0  0  0  0  0  0  0  0  0  0  0  0
    2.3007    0.8817   -2.6911 H   0  0  0  0  0  0  0  0  0  0  0  0
    4.3542    0.5694    0.8469 H   0  0  0  0  0  0  0  0  0  0  0  0
  1  2  1  0  0  0  0
  1  7  1  0  0  0  0
  1  8  1  0  0  0  0
  1  9  1  0  0  0  0
  2  3  1  0  0  0  0
  2  5  1  0  0  0  0
  3  4  1  0  0  0  0
  3 10  1  0  0  0  0
  3 11  1  0  0  0  0
  4 12  1  0  0  0  0
  5  6  2  0  0  0  0
  5 13  1  0  0  0  0
M  END
$$$$
