
 OpenBabel05052217073D

 14 13  0  0  1  0  0  0  0  0999 V2000
    0.9319   -0.0048    0.1460 C   0  0  0  0  0  0  0  0  0  0  0  0
    2.4551    0.0781    0.0770 C   0  0  3  0  0  0  0  0  0  0  0  0
    2.9930    1.4513    0.4724 C   0  0  0  0  0  0  0  0  0  0  0  0
    2.5217    2.5043   -0.4940 C   0  0  0  0  0  0  0  0  0  0  0  0
    1.8502    3.4749   -0.1571 O   0  0  0  0  0  0  0  0  0  0  0  0
    3.1696   -1.1841    1.1910 S   0  0  0  0  0  0  0  0  0  0  0  0
    0.4728    0.6775   -0.5778 H   0  0  0  0  0  0  0  0  0  0  0  0
    0.5538    0.2629    1.1390 H   0  0  0  0  0  0  0  0  0  0  0  0
    0.5760   -1.0121   -0.0973 H   0  0  0  0  0  0  0  0  0  0  0  0
    2.7756   -0.1682   -0.9413 H   0  0  0  0  0  0  0  0  0  0  0  0
    4.0892    1.4684    0.4445 H   0  0  0  0  0  0  0  0  0  0  0  0
    2.6745    1.7360    1.4821 H   0  0  0  0  0  0  0  0  0  0  0  0
    2.8290    2.3680   -1.5457 H   0  0  0  0  0  0  0  0  0  0  0  0
    2.6144   -0.7295    2.3259 H   0  0  0  0  0  0  0  0  0  0  0  0
  1  2  1  0  0  0  0
  1  7  1  0  0  0  0
  1  8  1  0  0  0  0
  1  9  1  0  0  0  0
  2  3  1  0  0  0  0
  2  6  1  0  0  0  0
  2 10  1  0  0  0  0
  3  4  1  0  0  0  0
  3 11  1  0  0  0  0
  3 12  1  0  0  0  0
  4  5  2  0  0  0  0
  4 13  1  0  0  0  0
  6 14  1  0  0  0  0
M  END
$$$$
