
 OpenBabel05052217073D

 22 21  0  0  1  0  0  0  0  0999 V2000
    1.0149   -0.2741   -0.2922 C   0  0  0  0  0  0  0  0  0  0  0  0
    2.5253   -0.0666   -0.1692 C   0  0  0  0  0  0  0  0  0  0  0  0
    3.2674   -1.2732   -0.7342 C   0  0  0  0  0  0  0  0  0  0  0  0
    2.9303    1.4917   -1.0424 S   0  0  0  0  0  0  0  0  0  0  0  0
    4.7480    1.5649   -0.8419 C   0  0  0  0  0  0  0  0  0  0  0  0
    5.3430    2.7974   -1.5484 C   0  0  3  0  0  0  0  0  0  0  0  0
    6.8447    2.8356   -1.2709 C   0  0  0  0  0  0  0  0  0  0  0  0
    7.7127    2.8082   -2.1389 O   0  0  0  0  0  0  0  0  0  0  0  0
    5.1153    2.7913   -3.0102 N   0  0  0  0  0  0  0  0  0  0  0  0
    0.7086   -1.1881    0.2283 H   0  0  0  0  0  0  0  0  0  0  0  0
    0.7016   -0.3727   -1.3385 H   0  0  0  0  0  0  0  0  0  0  0  0
    0.4582    0.5565    0.1559 H   0  0  0  0  0  0  0  0  0  0  0  0
    2.7783    0.0582    0.8891 H   0  0  0  0  0  0  0  0  0  0  0  0
    3.1159   -1.3781   -1.8140 H   0  0  0  0  0  0  0  0  0  0  0  0
    2.9135   -2.1952   -0.2592 H   0  0  0  0  0  0  0  0  0  0  0  0
    4.3420   -1.2167   -0.5369 H   0  0  0  0  0  0  0  0  0  0  0  0
    5.2046    0.6599   -1.2547 H   0  0  0  0  0  0  0  0  0  0  0  0
    4.9772    1.5977    0.2292 H   0  0  0  0  0  0  0  0  0  0  0  0
    4.9190    3.7169   -1.1291 H   0  0  0  0  0  0  0  0  0  0  0  0
    7.1243    2.9160   -0.2045 H   0  0  0  0  0  0  0  0  0  0  0  0
    5.5956    1.9847   -3.4129 H   0  0  0  0  0  0  0  0  0  0  0  0
    5.5929    3.5972   -3.4164 H   0  0  0  0  0  0  0  0  0  0  0  0
  1  2  1  0  0  0  0
  1 10  1  0  0  0  0
  1 11  1  0  0  0  0
  1 12  1  0  0  0  0
  2  3  1  0  0  0  0
  2  4  1  0  0  0  0
  2 13  1  0  0  0  0
  3 14  1  0  0  0  0
  3 15  1  0  0  0  0
  3 16  1  0  0  0  0
  4  5  1  0  0  0  0
  5  6  1  0  0  0  0
  5 17  1  0  0  0  0
  5 18  1  0  0  0  0
  6  7  1  0  0  0  0
  6  9  1  0  0  0  0
  6 19  1  0  0  0  0
  7  8  2  0  0  0  0
  7 20  1  0  0  0  0
  9 21  1  0  0  0  0
  9 22  1  0  0  0  0
M  END
$$$$
