
 OpenBabel05052217073D

 20 20  0  0  1  0  0  0  0  0999 V2000
    0.0078    1.4342   -0.1415 C   0  0  0  0  0  0  0  0  0  0  0  0
   -1.3986    0.8657    0.0645 C   0  0  3  0  0  0  0  0  0  0  0  0
   -1.4140   -0.6310    0.1952 N   0  0  0  0  0  0  0  0  0  0  0  0
   -0.1422   -1.1615   -0.3246 C   0  0  3  0  0  0  0  0  0  0  0  0
    1.1357    0.0416    0.0649 S   0  0  0  0  0  0  0  0  0  0  0  0
   -0.2145   -1.4387   -1.8532 C   0  0  0  0  0  0  0  0  0  0  0  0
   -1.3566   -2.3038   -2.1963 N   0  0  0  0  0  0  0  0  0  0  0  0
   -2.0037    1.4715    1.3375 C   0  0  0  0  0  0  0  0  0  0  0  0
   -2.1888    2.6648    1.5204 O   0  0  0  0  0  0  0  0  0  0  0  0
   -2.3119    0.5208    2.2570 O   0  0  0  0  0  0  0  0  0  0  0  0
    0.2781    2.2357    0.5528 H   0  0  0  0  0  0  0  0  0  0  0  0
    0.1212    1.8051   -1.1649 H   0  0  0  0  0  0  0  0  0  0  0  0
   -2.0564    1.1556   -0.7642 H   0  0  0  0  0  0  0  0  0  0  0  0
   -2.1422   -1.0029   -0.4308 H   0  0  0  0  0  0  0  0  0  0  0  0
    0.0768   -2.1011    0.1936 H   0  0  0  0  0  0  0  0  0  0  0  0
    0.7130   -1.9106   -2.1970 H   0  0  0  0  0  0  0  0  0  0  0  0
   -0.3379   -0.5026   -2.4108 H   0  0  0  0  0  0  0  0  0  0  0  0
   -1.2049   -3.2278   -1.7856 H   0  0  0  0  0  0  0  0  0  0  0  0
   -1.3540   -2.4606   -3.2063 H   0  0  0  0  0  0  0  0  0  0  0  0
   -2.0371   -0.3405    1.8535 H   0  0  0  0  0  0  0  0  0  0  0  0
  1  2  1  0  0  0  0
  1  5  1  0  0  0  0
  1 11  1  0  0  0  0
  1 12  1  0  0  0  0
  2  3  1  0  0  0  0
  2  8  1  0  0  0  0
  2 13  1  0  0  0  0
  3  4  1  0  0  0  0
  3 14  1  0  0  0  0
  4  5  1  0  0  0  0
  4  6  1  0  0  0  0
  4 15  1  0  0  0  0
  6  7  1  0  0  0  0
  6 16  1  0  0  0  0
  6 17  1  0  0  0  0
  7 18  1  0  0  0  0
  7 19  1  0  0  0  0
  8  9  2  0  0  0  0
  8 10  1  0  0  0  0
 10 20  1  0  0  0  0
M  END
$$$$
