
 OpenBabel05052217073D

 15 14  0  0  1  0  0  0  0  0999 V2000
    1.1250    0.0381    0.0133 C   0  0  0  0  0  0  0  0  0  0  0  0
    0.5707    0.2840    1.4404 C   0  0  3  0  0  0  0  0  0  0  0  0
    0.9010    1.5951    1.9867 N   0  0  0  0  0  0  0  0  0  0  0  0
   -1.2351    0.0949    1.4355 S   0  0  0  0  0  0  0  0  0  0  0  0
    2.5806    0.0958   -0.0709 N   0  0  0  0  0  0  0  0  0  0  0  0
    3.2559    1.2698   -0.2693 C   0  0  0  0  0  0  0  0  0  0  0  0
    2.7410    2.3761   -0.3397 O   0  0  0  0  0  0  0  0  0  0  0  0
    0.7146    0.7709   -0.6927 H   0  0  0  0  0  0  0  0  0  0  0  0
    0.8415   -0.9617   -0.3352 H   0  0  0  0  0  0  0  0  0  0  0  0
    0.9793   -0.4783    2.1125 H   0  0  0  0  0  0  0  0  0  0  0  0
    0.5694    2.3105    1.3383 H   0  0  0  0  0  0  0  0  0  0  0  0
    1.9146    1.7111    1.9496 H   0  0  0  0  0  0  0  0  0  0  0  0
   -1.4947    1.2014    0.7265 H   0  0  0  0  0  0  0  0  0  0  0  0
    3.1080   -0.7663   -0.0123 H   0  0  0  0  0  0  0  0  0  0  0  0
    4.3456    1.1148   -0.3377 H   0  0  0  0  0  0  0  0  0  0  0  0
  1  2  1  0  0  0  0
  1  5  1  0  0  0  0
  1  8  1  0  0  0  0
  1  9  1  0  0  0  0
  2  3  1  0  0  0  0
  2  4  1  0  0  0  0
  2 10  1  0  0  0  0
  3 11  1  0  0  0  0
  3 12  1  0  0  0  0
  4 13  1  0  0  0  0
  5  6  1  0  0  0  0
  5 14  1  0  0  0  0
  6  7  2  0  0  0  0
  6 15  1  0  0  0  0
M  END
$$$$
