
 OpenBabel05052217073D

 20 19  0  0  1  0  0  0  0  0999 V2000
    0.9455   -0.0169   -0.0785 C   0  0  0  0  0  0  0  0  0  0  0  0
    2.4792   -0.0243   -0.0546 C   0  0  0  0  0  0  0  0  0  0  0  0
    2.9875    1.4157    0.0598 C   0  0  0  0  0  0  0  0  0  0  0  0
    3.0279   -0.8989    1.0923 C   0  0  3  0  0  0  0  0  0  0  0  0
    2.5849   -2.3510    0.9361 C   0  0  0  0  0  0  0  0  0  0  0  0
    2.9172   -3.0715   -0.0016 O   0  0  0  0  0  0  0  0  0  0  0  0
    4.4867   -0.9089    1.0890 N   0  0  0  0  0  0  0  0  0  0  0  0
    5.1957   -1.1726    2.2309 C   0  0  0  0  0  0  0  0  0  0  0  0
    4.7058   -1.3471    3.3366 O   0  0  0  0  0  0  0  0  0  0  0  0
    0.5750    0.6486   -0.8651 H   0  0  0  0  0  0  0  0  0  0  0  0
    0.5350    0.3263    0.8760 H   0  0  0  0  0  0  0  0  0  0  0  0
    0.5457   -1.0156   -0.2836 H   0  0  0  0  0  0  0  0  0  0  0  0
    2.8252   -0.4281   -1.0152 H   0  0  0  0  0  0  0  0  0  0  0  0
    2.6833    1.8698    1.0058 H   0  0  0  0  0  0  0  0  0  0  0  0
    2.5896    2.0322   -0.7543 H   0  0  0  0  0  0  0  0  0  0  0  0
    4.0800    1.4594   -0.0043 H   0  0  0  0  0  0  0  0  0  0  0  0
    2.6710   -0.5398    2.0647 H   0  0  0  0  0  0  0  0  0  0  0  0
    1.9369   -2.7318    1.7450 H   0  0  0  0  0  0  0  0  0  0  0  0
    4.9623   -1.0235    0.2013 H   0  0  0  0  0  0  0  0  0  0  0  0
    6.2833   -1.2195    2.0438 H   0  0  0  0  0  0  0  0  0  0  0  0
  1  2  1  0  0  0  0
  1 10  1  0  0  0  0
  1 11  1  0  0  0  0
  1 12  1  0  0  0  0
  2  3  1  0  0  0  0
  2  4  1  0  0  0  0
  2 13  1  0  0  0  0
  3 14  1  0  0  0  0
  3 15  1  0  0  0  0
  3 16  1  0  0  0  0
  4  5  1  0  0  0  0
  4  7  1  0  0  0  0
  4 17  1  0  0  0  0
  5  6  2  0  0  0  0
  5 18  1  0  0  0  0
  7  8  1  0  0  0  0
  7 19  1  0  0  0  0
  8  9  2  0  0  0  0
  8 20  1  0  0  0  0
M  END
$$$$
