
 OpenBabel05052217073D

 15 15  0  0  1  0  0  0  0  0999 V2000
    0.0336    1.3494   -0.1647 C   0  0  0  0  0  0  0  0  0  0  0  0
   -1.4002    0.8611    0.0502 C   0  0  3  0  0  0  0  0  0  0  0  0
   -1.4910   -0.6303    0.1911 N   0  0  0  0  0  0  0  0  0  0  0  0
   -0.2540   -1.2264   -0.3006 C   0  0  0  0  0  0  0  0  0  0  0  0
    1.0751   -0.0982    0.1043 S   0  0  0  0  0  0  0  0  0  0  0  0
   -1.9682    1.5030    1.3227 C   0  0  0  0  0  0  0  0  0  0  0  0
   -2.1162    2.7047    1.4894 O   0  0  0  0  0  0  0  0  0  0  0  0
   -2.2971    0.5754    2.2578 O   0  0  0  0  0  0  0  0  0  0  0  0
    0.3396    2.1617    0.5004 H   0  0  0  0  0  0  0  0  0  0  0  0
    0.1723    1.6719   -1.2016 H   0  0  0  0  0  0  0  0  0  0  0  0
   -2.0449    1.1779   -0.7784 H   0  0  0  0  0  0  0  0  0  0  0  0
   -2.2668   -0.9711   -0.3826 H   0  0  0  0  0  0  0  0  0  0  0  0
   -0.2934   -1.3612   -1.3864 H   0  0  0  0  0  0  0  0  0  0  0  0
   -0.0876   -2.2019    0.1635 H   0  0  0  0  0  0  0  0  0  0  0  0
   -2.0453   -0.3010    1.8738 H   0  0  0  0  0  0  0  0  0  0  0  0
  1  2  1  0  0  0  0
  1  5  1  0  0  0  0
  1  9  1  0  0  0  0
  1 10  1  0  0  0  0
  2  3  1  0  0  0  0
  2  6  1  0  0  0  0
  2 11  1  0  0  0  0
  3  4  1  0  0  0  0
  3 12  1  0  0  0  0
  4  5  1  0  0  0  0
  4 13  1  0  0  0  0
  4 14  1  0  0  0  0
  6  7  2  0  0  0  0
  6  8  1  0  0  0  0
  8 15  1  0  0  0  0
M  END
$$$$
