
 OpenBabel05052217073D

  7  6  0  0  0  0  0  0  0  0999 V2000
    0.9244    0.0524   -0.0226 C   0  0  0  0  0  0  0  0  0  0  0  0
    2.4211    0.0503   -0.0561 C   0  0  0  0  0  0  0  0  0  0  0  0
    3.0680   -0.0134   -1.0966 O   0  0  0  0  0  0  0  0  0  0  0  0
    0.5889    0.1160    1.0158 H   0  0  0  0  0  0  0  0  0  0  0  0
    0.5481   -0.8746   -0.4612 H   0  0  0  0  0  0  0  0  0  0  0  0
    0.5481    0.9188   -0.5710 H   0  0  0  0  0  0  0  0  0  0  0  0
    2.9254    0.1103    0.9229 H   0  0  0  0  0  0  0  0  0  0  0  0
  1  2  1  0  0  0  0
  1  4  1  0  0  0  0
  1  5  1  0  0  0  0
  1  6  1  0  0  0  0
  2  3  2  0  0  0  0
  2  7  1  0  0  0  0
M  END
$$$$
