
 OpenBabel05052217073D

 11 10  0  0  1  0  0  0  0  0999 V2000
    1.0292   -0.1042    0.0752 C   0  0  0  0  0  0  0  0  0  0  0  0
    2.5536   -0.0902    0.0818 C   0  0  3  0  0  0  0  0  0  0  0  0
    3.0585    1.0682    0.7984 N   0  0  0  0  0  0  0  0  0  0  0  0
    3.1867   -1.5984    0.8561 S   0  0  0  0  0  0  0  0  0  0  0  0
    0.6382    0.7918   -0.4200 H   0  0  0  0  0  0  0  0  0  0  0  0
    0.6117   -0.1283    1.0887 H   0  0  0  0  0  0  0  0  0  0  0  0
    0.6431   -0.9711   -0.4733 H   0  0  0  0  0  0  0  0  0  0  0  0
    2.9223   -0.0617   -0.9480 H   0  0  0  0  0  0  0  0  0  0  0  0
    2.7017    1.0599    1.7514 H   0  0  0  0  0  0  0  0  0  0  0  0
    2.7013    1.9173    0.3664 H   0  0  0  0  0  0  0  0  0  0  0  0
    2.6418   -1.3938    2.0614 H   0  0  0  0  0  0  0  0  0  0  0  0
  1  2  1  0  0  0  0
  1  5  1  0  0  0  0
  1  6  1  0  0  0  0
  1  7  1  0  0  0  0
  2  3  1  0  0  0  0
  2  4  1  0  0  0  0
  2  8  1  0  0  0  0
  3  9  1  0  0  0  0
  3 10  1  0  0  0  0
  4 11  1  0  0  0  0
M  END
$$$$
