
 OpenBabel05052217073D

 13 12  0  0  0  0  0  0  0  0999 V2000
    1.0322    0.1261   -0.0780 C   0  0  0  0  0  0  0  0  0  0  0  0
    2.4927    0.1083   -0.0024 N   0  0  0  0  0  0  0  0  0  0  0  0
    3.0150   -1.0666   -0.7554 C   0  0  0  0  0  0  0  0  0  0  0  0
    4.5383   -1.0187   -0.7517 C   0  0  0  0  0  0  0  0  0  0  0  0
    5.2684   -1.9837   -0.9255 O   0  0  0  0  0  0  0  0  0  0  0  0
    4.9981    0.2451   -0.5615 O   0  0  0  0  0  0  0  0  0  0  0  0
    0.6486    0.9621    0.5160 H   0  0  0  0  0  0  0  0  0  0  0  0
    0.5997   -0.7976    0.3242 H   0  0  0  0  0  0  0  0  0  0  0  0
    0.6895    0.2649   -1.1088 H   0  0  0  0  0  0  0  0  0  0  0  0
    2.7433   -0.0228    0.9823 H   0  0  0  0  0  0  0  0  0  0  0  0
    2.6867   -1.0297   -1.7998 H   0  0  0  0  0  0  0  0  0  0  0  0
    2.6853   -1.9974   -0.2820 H   0  0  0  0  0  0  0  0  0  0  0  0
    4.2031    0.8188   -0.4425 H   0  0  0  0  0  0  0  0  0  0  0  0
  1  2  1  0  0  0  0
  1  7  1  0  0  0  0
  1  8  1  0  0  0  0
  1  9  1  0  0  0  0
  2  3  1  0  0  0  0
  2 10  1  0  0  0  0
  3  4  1  0  0  0  0
  3 11  1  0  0  0  0
  3 12  1  0  0  0  0
  4  5  2  0  0  0  0
  4  6  1  0  0  0  0
  6 13  1  0  0  0  0
M  END
$$$$
