
 OpenBabel05052217073D

 21 20  0  0  0  0  0  0  0  0999 V2000
    0.9232    0.0375   -0.0079 C   0  0  0  0  0  0  0  0  0  0  0  0
    2.4592   -0.0229   -0.1024 C   0  0  0  0  0  0  0  0  0  0  0  0
    2.9882   -1.2457    0.6609 C   0  0  0  0  0  0  0  0  0  0  0  0
    2.9350    0.0048   -1.5700 C   0  0  0  0  0  0  0  0  0  0  0  0
    2.4369   -1.1390   -2.4367 C   0  0  0  0  0  0  0  0  0  0  0  0
    1.7155   -2.0551   -2.0841 O   0  0  0  0  0  0  0  0  0  0  0  0
    2.9021   -1.0546   -3.7063 O   0  0  0  0  0  0  0  0  0  0  0  0
    3.0159    1.5420    0.7651 S   0  0  0  0  0  0  0  0  0  0  0  0
    4.8204    1.4555    0.6508 C   0  0  0  0  0  0  0  0  0  0  0  0
    0.4458   -0.8297   -0.4718 H   0  0  0  0  0  0  0  0  0  0  0  0
    0.5232    0.9276   -0.5087 H   0  0  0  0  0  0  0  0  0  0  0  0
    0.5819    0.0511    1.0344 H   0  0  0  0  0  0  0  0  0  0  0  0
    2.5817   -2.1787    0.2570 H   0  0  0  0  0  0  0  0  0  0  0  0
    2.7056   -1.2164    1.7197 H   0  0  0  0  0  0  0  0  0  0  0  0
    4.0782   -1.3287    0.6008 H   0  0  0  0  0  0  0  0  0  0  0  0
    4.0298   -0.0370   -1.6097 H   0  0  0  0  0  0  0  0  0  0  0  0
    2.6040    0.9350   -2.0493 H   0  0  0  0  0  0  0  0  0  0  0  0
    3.4746   -0.2802   -3.8746 H   0  0  0  0  0  0  0  0  0  0  0  0
    5.2368    2.3112    1.1915 H   0  0  0  0  0  0  0  0  0  0  0  0
    5.1517    1.5278   -0.3870 H   0  0  0  0  0  0  0  0  0  0  0  0
    5.2126    0.5487    1.1143 H   0  0  0  0  0  0  0  0  0  0  0  0
  1  2  1  0  0  0  0
  1 10  1  0  0  0  0
  1 11  1  0  0  0  0
  1 12  1  0  0  0  0
  2  3  1  0  0  0  0
  2  4  1  0  0  0  0
  2  8  1  0  0  0  0
  3 13  1  0  0  0  0
  3 14  1  0  0  0  0
  3 15  1  0  0  0  0
  4  5  1  0  0  0  0
  4 16  1  0  0  0  0
  4 17  1  0  0  0  0
  5  6  2  0  0  0  0
  5  7  1  0  0  0  0
  7 18  1  0  0  0  0
  8  9  1  0  0  0  0
  9 19  1  0  0  0  0
  9 20  1  0  0  0  0
  9 21  1  0  0  0  0
M  END
$$$$
