
 OpenBabel05052217073D

 20 19  0  0  1  0  0  0  0  0999 V2000
    2.9473    1.1743   -1.0862 C   0  0  0  0  0  0  0  0  0  0  0  0
    2.5847    0.0400   -0.1299 C   0  0  3  0  0  0  0  0  0  0  0  0
    1.0656   -0.0752    0.0117 C   0  0  0  0  0  0  0  0  0  0  0  0
    0.2458    0.6266   -0.5766 O   0  0  0  0  0  0  0  0  0  0  0  0
    3.0835   -1.2777   -0.5724 N   0  0  0  0  0  0  0  0  0  0  0  0
    4.5540   -1.3557   -0.5592 C   0  0  0  0  0  0  0  0  0  0  0  0
    5.0529   -2.7385   -1.0236 C   0  0  0  0  0  0  0  0  0  0  0  0
    4.5100   -3.1101   -2.3350 N   0  0  0  0  0  0  0  0  0  0  0  0
    2.4708    2.1109   -0.7767 H   0  0  0  0  0  0  0  0  0  0  0  0
    2.6123    0.9567   -2.1067 H   0  0  0  0  0  0  0  0  0  0  0  0
    4.0260    1.3551   -1.1105 H   0  0  0  0  0  0  0  0  0  0  0  0
    2.9634    0.2658    0.8743 H   0  0  0  0  0  0  0  0  0  0  0  0
    0.7232   -0.8433    0.7263 H   0  0  0  0  0  0  0  0  0  0  0  0
    2.7863   -1.4285   -1.5398 H   0  0  0  0  0  0  0  0  0  0  0  0
    4.9362   -1.1616    0.4493 H   0  0  0  0  0  0  0  0  0  0  0  0
    4.9815   -0.6059   -1.2336 H   0  0  0  0  0  0  0  0  0  0  0  0
    4.7720   -3.5033   -0.2908 H   0  0  0  0  0  0  0  0  0  0  0  0
    6.1466   -2.7220   -1.0817 H   0  0  0  0  0  0  0  0  0  0  0  0
    3.5082   -3.2704   -2.2313 H   0  0  0  0  0  0  0  0  0  0  0  0
    4.9015   -4.0112   -2.6083 H   0  0  0  0  0  0  0  0  0  0  0  0
  1  2  1  0  0  0  0
  1  9  1  0  0  0  0
  1 10  1  0  0  0  0
  1 11  1  0  0  0  0
  2  3  1  0  0  0  0
  2  5  1  0  0  0  0
  2 12  1  0  0  0  0
  3  4  2  0  0  0  0
  3 13  1  0  0  0  0
  5  6  1  0  0  0  0
  5 14  1  0  0  0  0
  6  7  1  0  0  0  0
  6 15  1  0  0  0  0
  6 16  1  0  0  0  0
  7  8  1  0  0  0  0
  7 17  1  0  0  0  0
  7 18  1  0  0  0  0
  8 19  1  0  0  0  0
  8 20  1  0  0  0  0
M  END
$$$$
