
 OpenBabel05052217073D

 18 17  0  0  0  0  0  0  0  0999 V2000
    1.0583   -0.0282   -0.0203 C   0  0  0  0  0  0  0  0  0  0  0  0
    2.5903   -0.0459   -0.0724 C   0  0  0  0  0  0  0  0  0  0  0  0
    3.1257    1.1954   -0.7948 C   0  0  0  0  0  0  0  0  0  0  0  0
    3.1367   -0.0609    1.3660 C   0  0  0  0  0  0  0  0  0  0  0  0
    3.1988   -1.5894   -0.8909 S   0  0  0  0  0  0  0  0  0  0  0  0
    2.4592   -1.4559   -2.5411 C   0  0  0  0  0  0  0  0  0  0  0  0
    0.7008    0.8452    0.5384 H   0  0  0  0  0  0  0  0  0  0  0  0
    0.6600   -0.9190    0.4786 H   0  0  0  0  0  0  0  0  0  0  0  0
    0.6096    0.0359   -1.0169 H   0  0  0  0  0  0  0  0  0  0  0  0
    2.8096    2.1098   -0.2774 H   0  0  0  0  0  0  0  0  0  0  0  0
    2.7558    1.2719   -1.8216 H   0  0  0  0  0  0  0  0  0  0  0  0
    4.2218    1.2050   -0.8242 H   0  0  0  0  0  0  0  0  0  0  0  0
    2.8001    0.8258    1.9173 H   0  0  0  0  0  0  0  0  0  0  0  0
    4.2333   -0.0544    1.3860 H   0  0  0  0  0  0  0  0  0  0  0  0
    2.7900   -0.9382    1.9247 H   0  0  0  0  0  0  0  0  0  0  0  0
    2.7392   -2.3432   -3.1190 H   0  0  0  0  0  0  0  0  0  0  0  0
    2.8339   -0.5815   -3.0741 H   0  0  0  0  0  0  0  0  0  0  0  0
    1.3686   -1.4280   -2.4879 H   0  0  0  0  0  0  0  0  0  0  0  0
  1  2  1  0  0  0  0
  1  7  1  0  0  0  0
  1  8  1  0  0  0  0
  1  9  1  0  0  0  0
  2  3  1  0  0  0  0
  2  4  1  0  0  0  0
  2  5  1  0  0  0  0
  3 10  1  0  0  0  0
  3 11  1  0  0  0  0
  3 12  1  0  0  0  0
  4 13  1  0  0  0  0
  4 14  1  0  0  0  0
  4 15  1  0  0  0  0
  5  6  1  0  0  0  0
  6 16  1  0  0  0  0
  6 17  1  0  0  0  0
  6 18  1  0  0  0  0
M  END
$$$$
