
 OpenBabel05052217073D

 10  9  0  0  0  0  0  0  0  0999 V2000
    1.0535   -0.0997    0.0882 C   0  0  0  0  0  0  0  0  0  0  0  0
    0.5722   -0.7833    1.2514 N   0  0  0  0  0  0  0  0  0  0  0  0
   -0.7661   -0.8439    1.5230 C   0  0  0  0  0  0  0  0  0  0  0  0
   -1.6433   -0.2911    0.8760 O   0  0  0  0  0  0  0  0  0  0  0  0
    2.8519   -0.1716    0.0957 S   0  0  0  0  0  0  0  0  0  0  0  0
    0.7075    0.9384    0.1034 H   0  0  0  0  0  0  0  0  0  0  0  0
    0.6571   -0.5942   -0.8037 H   0  0  0  0  0  0  0  0  0  0  0  0
    1.2151   -1.3749    1.7586 H   0  0  0  0  0  0  0  0  0  0  0  0
   -0.9810   -1.4608    2.4111 H   0  0  0  0  0  0  0  0  0  0  0  0
    3.0199    0.6195    1.1641 H   0  0  0  0  0  0  0  0  0  0  0  0
  1  2  1  0  0  0  0
  1  5  1  0  0  0  0
  1  6  1  0  0  0  0
  1  7  1  0  0  0  0
  2  3  1  0  0  0  0
  2  8  1  0  0  0  0
  3  4  2  0  0  0  0
  3  9  1  0  0  0  0
  5 10  1  0  0  0  0
M  END
$$$$
