
 OpenBabel05052217073D

 12 11  0  0  0  0  0  0  0  0999 V2000
    1.0825    0.1050   -0.0387 C   0  0  0  0  0  0  0  0  0  0  0  0
    2.5303    0.0863   -0.0315 N   0  0  0  0  0  0  0  0  0  0  0  0
    3.2395   -1.0701    0.4760 C   0  0  0  0  0  0  0  0  0  0  0  0
    3.2534    1.1634   -0.5020 C   0  0  0  0  0  0  0  0  0  0  0  0
    4.4748    1.2423   -0.5346 O   0  0  0  0  0  0  0  0  0  0  0  0
    0.6713   -0.8225    0.3674 H   0  0  0  0  0  0  0  0  0  0  0  0
    0.7359    0.2405   -1.0676 H   0  0  0  0  0  0  0  0  0  0  0  0
    0.7367    0.9528    0.5600 H   0  0  0  0  0  0  0  0  0  0  0  0
    2.5458   -1.8434    0.8145 H   0  0  0  0  0  0  0  0  0  0  0  0
    3.8750   -0.7578    1.3102 H   0  0  0  0  0  0  0  0  0  0  0  0
    3.8758   -1.4717   -0.3185 H   0  0  0  0  0  0  0  0  0  0  0  0
    2.6094    1.9836   -0.8617 H   0  0  0  0  0  0  0  0  0  0  0  0
  1  2  1  0  0  0  0
  1  6  1  0  0  0  0
  1  7  1  0  0  0  0
  1  8  1  0  0  0  0
  2  3  1  0  0  0  0
  2  4  1  0  0  0  0
  3  9  1  0  0  0  0
  3 10  1  0  0  0  0
  3 11  1  0  0  0  0
  4  5  2  0  0  0  0
  4 12  1  0  0  0  0
M  END
$$$$
