
 OpenBabel05052217073D

 17 16  0  0  1  0  0  0  0  0999 V2000
    2.9401    1.3778   -0.4210 C   0  0  0  0  0  0  0  0  0  0  0  0
    2.4746    0.0170    0.0803 C   0  0  0  0  0  0  0  0  0  0  0  0
    3.0176   -0.3333    1.4670 C   0  0  3  0  0  0  0  0  0  0  0  0
    2.5054   -1.7097    1.9037 C   0  0  0  0  0  0  0  0  0  0  0  0
    1.3934   -2.1503    1.6256 O   0  0  0  0  0  0  0  0  0  0  0  0
    4.4788   -0.3571    1.4594 N   0  0  0  0  0  0  0  0  0  0  0  0
    5.2306   -0.0947    2.5710 C   0  0  0  0  0  0  0  0  0  0  0  0
    4.7799    0.1484    3.6813 O   0  0  0  0  0  0  0  0  0  0  0  0
    2.6119    1.5236   -1.4547 H   0  0  0  0  0  0  0  0  0  0  0  0
    4.0310    1.4662   -0.4077 H   0  0  0  0  0  0  0  0  0  0  0  0
    2.5233    2.1862    0.1870 H   0  0  0  0  0  0  0  0  0  0  0  0
    2.7926   -0.7488   -0.6380 H   0  0  0  0  0  0  0  0  0  0  0  0
    1.3779    0.0005    0.0887 H   0  0  0  0  0  0  0  0  0  0  0  0
    2.6830    0.3872    2.2232 H   0  0  0  0  0  0  0  0  0  0  0  0
    3.1526   -2.2620    2.6069 H   0  0  0  0  0  0  0  0  0  0  0  0
    4.9577   -0.4449    0.5717 H   0  0  0  0  0  0  0  0  0  0  0  0
    6.3114   -0.1379    2.3584 H   0  0  0  0  0  0  0  0  0  0  0  0
  1  2  1  0  0  0  0
  1  9  1  0  0  0  0
  1 10  1  0  0  0  0
  1 11  1  0  0  0  0
  2  3  1  0  0  0  0
  2 12  1  0  0  0  0
  2 13  1  0  0  0  0
  3  4  1  0  0  0  0
  3  6  1  0  0  0  0
  3 14  1  0  0  0  0
  4  5  2  0  0  0  0
  4 15  1  0  0  0  0
  6  7  1  0  0  0  0
  6 16  1  0  0  0  0
  7  8  2  0  0  0  0
  7 17  1  0  0  0  0
M  END
$$$$
