
 OpenBabel05052217073D

 20 19  0  0  0  0  0  0  0  0999 V2000
    1.0113    0.0896    0.0429 C   0  0  0  0  0  0  0  0  0  0  0  0
    0.4183    0.6648   -1.2399 C   0  0  0  0  0  0  0  0  0  0  0  0
   -1.4007    0.6161   -1.0921 S   0  0  0  0  0  0  0  0  0  0  0  0
   -1.8655    1.3278   -2.7097 C   0  0  0  0  0  0  0  0  0  0  0  0
   -3.3968    1.3763   -2.8103 C   0  0  0  0  0  0  0  0  0  0  0  0
   -3.8497    1.9487   -4.0797 N   0  0  0  0  0  0  0  0  0  0  0  0
    2.5166    0.1019    0.0108 C   0  0  0  0  0  0  0  0  0  0  0  0
    3.2003    0.5164   -0.9106 O   0  0  0  0  0  0  0  0  0  0  0  0
    3.0567   -0.4077    1.1453 O   0  0  0  0  0  0  0  0  0  0  0  0
    0.6902   -0.9503    0.1768 H   0  0  0  0  0  0  0  0  0  0  0  0
    0.6930    0.6831    0.9084 H   0  0  0  0  0  0  0  0  0  0  0  0
    0.7319    0.0756   -2.1085 H   0  0  0  0  0  0  0  0  0  0  0  0
    0.7446    1.6998   -1.3863 H   0  0  0  0  0  0  0  0  0  0  0  0
   -1.4512    0.7076   -3.5115 H   0  0  0  0  0  0  0  0  0  0  0  0
   -1.4465    2.3362   -2.7916 H   0  0  0  0  0  0  0  0  0  0  0  0
   -3.8154    1.9745   -1.9924 H   0  0  0  0  0  0  0  0  0  0  0  0
   -3.8099    0.3643   -2.7274 H   0  0  0  0  0  0  0  0  0  0  0  0
   -3.5764    2.9295   -4.1311 H   0  0  0  0  0  0  0  0  0  0  0  0
   -4.8707    1.9440   -4.0953 H   0  0  0  0  0  0  0  0  0  0  0  0
    2.3967   -0.7026    1.8007 H   0  0  0  0  0  0  0  0  0  0  0  0
  1  2  1  0  0  0  0
  1  7  1  0  0  0  0
  1 10  1  0  0  0  0
  1 11  1  0  0  0  0
  2  3  1  0  0  0  0
  2 12  1  0  0  0  0
  2 13  1  0  0  0  0
  3  4  1  0  0  0  0
  4  5  1  0  0  0  0
  4 14  1  0  0  0  0
  4 15  1  0  0  0  0
  5  6  1  0  0  0  0
  5 16  1  0  0  0  0
  5 17  1  0  0  0  0
  6 18  1  0  0  0  0
  6 19  1  0  0  0  0
  7  8  2  0  0  0  0
  7  9  1  0  0  0  0
  9 20  1  0  0  0  0
M  END
$$$$
