
 OpenBabel05052217073D

 19 18  0  0  0  0  0  0  0  0999 V2000
    2.3074    0.6977   -1.2091 C   0  0  0  0  0  0  0  0  0  0  0  0
    2.5189    0.0489    0.1471 C   0  0  0  0  0  0  0  0  0  0  0  0
    3.1047    0.9598    1.1074 N   0  0  0  0  0  0  0  0  0  0  0  0
    4.4696    1.1373    1.2029 C   0  0  0  0  0  0  0  0  0  0  0  0
    5.2795    0.5525    0.4870 O   0  0  0  0  0  0  0  0  0  0  0  0
    4.9003    2.1354    2.2697 C   0  0  0  0  0  0  0  0  0  0  0  0
    5.0841    3.4972    1.6678 C   0  0  0  0  0  0  0  0  0  0  0  0
    4.4436    4.5992    2.0788 C   0  0  0  0  0  0  0  0  0  0  0  0
    1.8786   -0.0245   -1.9114 H   0  0  0  0  0  0  0  0  0  0  0  0
    3.2502    1.0635   -1.6282 H   0  0  0  0  0  0  0  0  0  0  0  0
    1.6220    1.5483   -1.1338 H   0  0  0  0  0  0  0  0  0  0  0  0
    3.1672   -0.8279    0.0426 H   0  0  0  0  0  0  0  0  0  0  0  0
    1.5602   -0.2830    0.5585 H   0  0  0  0  0  0  0  0  0  0  0  0
    2.4966    1.5967    1.6062 H   0  0  0  0  0  0  0  0  0  0  0  0
    5.8491    1.7877    2.6937 H   0  0  0  0  0  0  0  0  0  0  0  0
    4.1702    2.1443    3.0870 H   0  0  0  0  0  0  0  0  0  0  0  0
    5.8025    3.5736    0.8516 H   0  0  0  0  0  0  0  0  0  0  0  0
    3.7293    4.5785    2.8957 H   0  0  0  0  0  0  0  0  0  0  0  0
    4.6349    5.5587    1.6066 H   0  0  0  0  0  0  0  0  0  0  0  0
  1  2  1  0  0  0  0
  1  9  1  0  0  0  0
  1 10  1  0  0  0  0
  1 11  1  0  0  0  0
  2  3  1  0  0  0  0
  2 12  1  0  0  0  0
  2 13  1  0  0  0  0
  3  4  1  0  0  0  0
  3 14  1  0  0  0  0
  4  5  2  0  0  0  0
  4  6  1  0  0  0  0
  6  7  1  0  0  0  0
  6 15  1  0  0  0  0
  6 16  1  0  0  0  0
  7  8  2  0  0  0  0
  7 17  1  0  0  0  0
  8 18  1  0  0  0  0
  8 19  1  0  0  0  0
M  END
$$$$
