
 OpenBabel05052217073D

 12 12  0  0  1  0  0  0  0  0999 V2000
    0.3206    0.9628   -0.0820 C   0  0  0  0  0  0  0  0  0  0  0  0
    1.0220   -0.3995    0.1760 C   0  0  3  0  0  0  0  0  0  0  0  0
   -0.4307   -0.9592   -0.0013 C   0  0  0  0  0  0  0  0  0  0  0  0
   -0.9868   -2.0014   -0.2564 O   0  0  0  0  0  0  0  0  0  0  0  0
   -0.9596    0.2869    0.1829 N   0  0  0  0  0  0  0  0  0  0  0  0
    1.5359   -0.4473    1.5620 N   0  0  0  0  0  0  0  0  0  0  0  0
    0.3810    1.3307   -1.1106 H   0  0  0  0  0  0  0  0  0  0  0  0
    0.5314    1.7783    0.6175 H   0  0  0  0  0  0  0  0  0  0  0  0
    1.7370   -0.7064   -0.5900 H   0  0  0  0  0  0  0  0  0  0  0  0
   -1.8641    0.4631   -0.2313 H   0  0  0  0  0  0  0  0  0  0  0  0
    0.8058   -0.2857    2.2593 H   0  0  0  0  0  0  0  0  0  0  0  0
    2.2706    0.2293    1.7562 H   0  0  0  0  0  0  0  0  0  0  0  0
  1  2  1  0  0  0  0
  1  5  1  0  0  0  0
  1  7  1  0  0  0  0
  1  8  1  0  0  0  0
  2  3  1  0  0  0  0
  2  6  1  0  0  0  0
  2  9  1  0  0  0  0
  3  4  2  0  0  0  0
  3  5  1  0  0  0  0
  5 10  1  0  0  0  0
  6 11  1  0  0  0  0
  6 12  1  0  0  0  0
M  END
$$$$
