
 OpenBabel05052217073D

 22 21  0  0  1  0  0  0  0  0999 V2000
    0.9725    0.1472    0.0363 C   0  0  0  0  0  0  0  0  0  0  0  0
    2.4967    0.0716    0.0427 C   0  0  3  0  0  0  0  0  0  0  0  0
    3.0019    0.6340   -1.2778 C   0  0  0  0  0  0  0  0  0  0  0  0
    3.7101    0.0038   -2.0581 O   0  0  0  0  0  0  0  0  0  0  0  0
    3.0175    0.8674    1.1732 N   0  0  0  0  0  0  0  0  0  0  0  0
    4.4831    0.7731    1.2873 C   0  0  0  0  0  0  0  0  0  0  0  0
    4.9928    1.5783    2.4960 C   0  0  0  0  0  0  0  0  0  0  0  0
    6.4390    1.5615    2.5988 N   0  0  0  0  0  0  0  0  0  0  0  0
    7.1062    0.5499    3.2373 C   0  0  0  0  0  0  0  0  0  0  0  0
    6.5848   -0.4045    3.7944 O   0  0  0  0  0  0  0  0  0  0  0  0
    0.5612   -0.4099   -0.8134 H   0  0  0  0  0  0  0  0  0  0  0  0
    0.6204    1.1820   -0.0564 H   0  0  0  0  0  0  0  0  0  0  0  0
    0.5482   -0.2753    0.9533 H   0  0  0  0  0  0  0  0  0  0  0  0
    2.8066   -0.9760    0.1307 H   0  0  0  0  0  0  0  0  0  0  0  0
    2.7076    1.6750   -1.4992 H   0  0  0  0  0  0  0  0  0  0  0  0
    2.6113    0.4955    2.0362 H   0  0  0  0  0  0  0  0  0  0  0  0
    4.9589    1.1768    0.3858 H   0  0  0  0  0  0  0  0  0  0  0  0
    4.7932   -0.2744    1.3840 H   0  0  0  0  0  0  0  0  0  0  0  0
    4.5667    1.1781    3.4231 H   0  0  0  0  0  0  0  0  0  0  0  0
    4.6931    2.6286    2.4089 H   0  0  0  0  0  0  0  0  0  0  0  0
    6.9742    2.2721    2.1163 H   0  0  0  0  0  0  0  0  0  0  0  0
    8.2005    0.6881    3.1963 H   0  0  0  0  0  0  0  0  0  0  0  0
  1  2  1  0  0  0  0
  1 11  1  0  0  0  0
  1 12  1  0  0  0  0
  1 13  1  0  0  0  0
  2  3  1  0  0  0  0
  2  5  1  0  0  0  0
  2 14  1  0  0  0  0
  3  4  2  0  0  0  0
  3 15  1  0  0  0  0
  5  6  1  0  0  0  0
  5 16  1  0  0  0  0
  6  7  1  0  0  0  0
  6 17  1  0  0  0  0
  6 18  1  0  0  0  0
  7  8  1  0  0  0  0
  7 19  1  0  0  0  0
  7 20  1  0  0  0  0
  8  9  1  0  0  0  0
  8 21  1  0  0  0  0
  9 10  2  0  0  0  0
  9 22  1  0  0  0  0
M  END
$$$$
