
 OpenBabel05052217073D

 13 13  0  0  1  0  0  0  0  0999 V2000
    0.3656    1.1076   -0.2087 C   0  0  3  0  0  0  0  0  0  0  0  0
    1.0244   -0.2693    0.1145 C   0  0  3  0  0  0  0  0  0  0  0  0
   -0.2897   -0.8757   -0.1471 N   0  0  0  0  0  0  0  0  0  0  0  0
   -0.9588    0.3065   -0.0342 C   0  0  0  0  0  0  0  0  0  0  0  0
   -2.1157    0.5256    0.2226 O   0  0  0  0  0  0  0  0  0  0  0  0
    1.4570   -0.6265    1.8561 S   0  0  0  0  0  0  0  0  0  0  0  0
    0.6444    2.1517    0.7990 N   0  0  0  0  0  0  0  0  0  0  0  0
    0.5156    1.4512   -1.2382 H   0  0  0  0  0  0  0  0  0  0  0  0
    1.7827   -0.5879   -0.6070 H   0  0  0  0  0  0  0  0  0  0  0  0
   -0.6879   -1.6934    0.2914 H   0  0  0  0  0  0  0  0  0  0  0  0
    0.3103   -0.2368    2.4317 H   0  0  0  0  0  0  0  0  0  0  0  0
    0.6199    1.8203    1.7632 H   0  0  0  0  0  0  0  0  0  0  0  0
   -0.0227    2.9233    0.7586 H   0  0  0  0  0  0  0  0  0  0  0  0
  1  2  1  0  0  0  0
  1  4  1  0  0  0  0
  1  7  1  0  0  0  0
  1  8  1  0  0  0  0
  2  3  1  0  0  0  0
  2  6  1  0  0  0  0
  2  9  1  0  0  0  0
  3  4  1  0  0  0  0
  3 10  1  0  0  0  0
  4  5  2  0  0  0  0
  6 11  1  0  0  0  0
  7 12  1  0  0  0  0
  7 13  1  0  0  0  0
M  END
$$$$
