
 OpenBabel05052217073D

 25 24  0  0  0  0  0  0  0  0999 V2000
    0.9418    0.0029   -0.0866 C   0  0  0  0  0  0  0  0  0  0  0  0
    2.4805   -0.0368   -0.0581 C   0  0  0  0  0  0  0  0  0  0  0  0
    2.9933    0.7733    1.1401 C   0  0  0  0  0  0  0  0  0  0  0  0
    2.9952   -1.4878   -0.0359 C   0  0  0  0  0  0  0  0  0  0  0  0
    2.5329   -2.2750    1.1677 C   0  0  0  0  0  0  0  0  0  0  0  0
    3.3049   -2.7848    1.9713 O   0  0  0  0  0  0  0  0  0  0  0  0
    2.9893    0.7968   -1.6464 S   0  0  0  0  0  0  0  0  0  0  0  0
    4.8161    0.7378   -1.5738 C   0  0  0  0  0  0  0  0  0  0  0  0
    5.3920    1.4003   -2.8339 C   0  0  0  0  0  0  0  0  0  0  0  0
    6.8565    1.3793   -2.8319 N   0  0  0  0  0  0  0  0  0  0  0  0
    0.5091   -0.4286    0.8221 H   0  0  0  0  0  0  0  0  0  0  0  0
    0.5386   -0.5611   -0.9366 H   0  0  0  0  0  0  0  0  0  0  0  0
    0.5620    1.0300   -0.1503 H   0  0  0  0  0  0  0  0  0  0  0  0
    2.6030    0.3720    2.0828 H   0  0  0  0  0  0  0  0  0  0  0  0
    2.6761    1.8213    1.0852 H   0  0  0  0  0  0  0  0  0  0  0  0
    4.0851    0.7517    1.2161 H   0  0  0  0  0  0  0  0  0  0  0  0
    4.0894   -1.5160   -0.0189 H   0  0  0  0  0  0  0  0  0  0  0  0
    2.6608   -2.0380   -0.9232 H   0  0  0  0  0  0  0  0  0  0  0  0
    1.4434   -2.4157    1.2771 H   0  0  0  0  0  0  0  0  0  0  0  0
    5.1508   -0.3020   -1.5244 H   0  0  0  0  0  0  0  0  0  0  0  0
    5.1683    1.2712   -0.6862 H   0  0  0  0  0  0  0  0  0  0  0  0
    5.0584    2.4420   -2.9075 H   0  0  0  0  0  0  0  0  0  0  0  0
    5.0440    0.8734   -3.7299 H   0  0  0  0  0  0  0  0  0  0  0  0
    7.2070    1.9499   -2.0627 H   0  0  0  0  0  0  0  0  0  0  0  0
    7.1939    1.8245   -3.6854 H   0  0  0  0  0  0  0  0  0  0  0  0
  1  2  1  0  0  0  0
  1 11  1  0  0  0  0
  1 12  1  0  0  0  0
  1 13  1  0  0  0  0
  2  3  1  0  0  0  0
  2  4  1  0  0  0  0
  2  7  1  0  0  0  0
  3 14  1  0  0  0  0
  3 15  1  0  0  0  0
  3 16  1  0  0  0  0
  4  5  1  0  0  0  0
  4 17  1  0  0  0  0
  4 18  1  0  0  0  0
  5  6  2  0  0  0  0
  5 19  1  0  0  0  0
  7  8  1  0  0  0  0
  8  9  1  0  0  0  0
  8 20  1  0  0  0  0
  8 21  1  0  0  0  0
  9 10  1  0  0  0  0
  9 22  1  0  0  0  0
  9 23  1  0  0  0  0
 10 24  1  0  0  0  0
 10 25  1  0  0  0  0
M  END
$$$$
