
 OpenBabel05052217073D

 11 10  0  0  0  0  0  0  0  0999 V2000
    1.0403   -0.0579   -0.1053 C   0  0  0  0  0  0  0  0  0  0  0  0
    0.4780   -0.7440   -1.3554 C   0  0  0  0  0  0  0  0  0  0  0  0
    1.0065   -2.4841   -1.4782 S   0  0  0  0  0  0  0  0  0  0  0  0
    2.5072   -0.0287   -0.0864 N   0  0  0  0  0  0  0  0  0  0  0  0
    0.6766   -0.5577    0.7984 H   0  0  0  0  0  0  0  0  0  0  0  0
    0.6731    0.9733   -0.0733 H   0  0  0  0  0  0  0  0  0  0  0  0
    0.8009   -0.2172   -2.2604 H   0  0  0  0  0  0  0  0  0  0  0  0
   -0.6159   -0.7208   -1.3273 H   0  0  0  0  0  0  0  0  0  0  0  0
    2.3160   -2.2199   -1.6058 H   0  0  0  0  0  0  0  0  0  0  0  0
    2.8521   -0.9835   -0.0193 H   0  0  0  0  0  0  0  0  0  0  0  0
    2.8153    0.4333    0.7678 H   0  0  0  0  0  0  0  0  0  0  0  0
  1  2  1  0  0  0  0
  1  4  1  0  0  0  0
  1  5  1  0  0  0  0
  1  6  1  0  0  0  0
  2  3  1  0  0  0  0
  2  7  1  0  0  0  0
  2  8  1  0  0  0  0
  3  9  1  0  0  0  0
  4 10  1  0  0  0  0
  4 11  1  0  0  0  0
M  END
$$$$
