
 OpenBabel05052217073D

 17 17  0  0  1  0  0  0  0  0999 V2000
    0.4007    0.9703   -0.0730 C   0  0  0  0  0  0  0  0  0  0  0  0
    0.9506   -0.4548    0.1310 C   0  0  3  0  0  0  0  0  0  0  0  0
   -0.4340   -0.9285    0.1934 N   0  0  0  0  0  0  0  0  0  0  0  0
   -0.9808    0.2983   -0.0607 C   0  0  0  0  0  0  0  0  0  0  0  0
   -2.1233    0.6083   -0.3049 O   0  0  0  0  0  0  0  0  0  0  0  0
   -0.9728   -2.1032   -0.4413 C   0  0  0  0  0  0  0  0  0  0  0  0
   -0.7864   -2.1123   -1.9625 C   0  0  0  0  0  0  0  0  0  0  0  0
    0.0718   -1.4820   -2.5648 O   0  0  0  0  0  0  0  0  0  0  0  0
   -1.6399   -2.9446   -2.6053 O   0  0  0  0  0  0  0  0  0  0  0  0
    1.7010   -0.6821    1.7822 S   0  0  0  0  0  0  0  0  0  0  0  0
    0.6452    1.4154   -1.0427 H   0  0  0  0  0  0  0  0  0  0  0  0
    0.5518    1.7045    0.7210 H   0  0  0  0  0  0  0  0  0  0  0  0
    1.5463   -0.8575   -0.6897 H   0  0  0  0  0  0  0  0  0  0  0  0
   -2.0441   -2.1395   -0.2160 H   0  0  0  0  0  0  0  0  0  0  0  0
   -0.4752   -2.9819   -0.0235 H   0  0  0  0  0  0  0  0  0  0  0  0
   -2.3102   -3.3665   -2.0350 H   0  0  0  0  0  0  0  0  0  0  0  0
    0.6534   -0.2684    2.5111 H   0  0  0  0  0  0  0  0  0  0  0  0
  1  2  1  0  0  0  0
  1  4  1  0  0  0  0
  1 11  1  0  0  0  0
  1 12  1  0  0  0  0
  2  3  1  0  0  0  0
  2 10  1  0  0  0  0
  2 13  1  0  0  0  0
  3  4  1  0  0  0  0
  3  6  1  0  0  0  0
  4  5  2  0  0  0  0
  6  7  1  0  0  0  0
  6 14  1  0  0  0  0
  6 15  1  0  0  0  0
  7  8  2  0  0  0  0
  7  9  1  0  0  0  0
  9 16  1  0  0  0  0
 10 17  1  0  0  0  0
M  END
$$$$
