
 OpenBabel05052217073D

 18 18  0  0  1  0  0  0  0  0999 V2000
    1.1872   -0.1047    0.2638 C   0  0  0  0  0  0  0  0  0  0  0  0
    2.6143   -0.1354    0.4381 N   0  0  0  0  0  0  0  0  0  0  0  0
    3.5141    0.9571    0.0335 C   0  0  3  0  0  0  0  0  0  0  0  0
    4.4713   -0.1114   -0.5675 C   0  0  3  0  0  0  0  0  0  0  0  0
    3.3484   -1.1055   -0.1819 C   0  0  0  0  0  0  0  0  0  0  0  0
    3.0798   -2.2503   -0.4692 O   0  0  0  0  0  0  0  0  0  0  0  0
    4.6930   -0.0599   -2.0428 N   0  0  0  0  0  0  0  0  0  0  0  0
    5.1015    1.0741   -2.6880 C   0  0  0  0  0  0  0  0  0  0  0  0
    5.3271    2.1443   -2.1449 O   0  0  0  0  0  0  0  0  0  0  0  0
    4.1710    1.7233    1.5593 S   0  0  0  0  0  0  0  0  0  0  0  0
    0.8216    0.9156    0.4011 H   0  0  0  0  0  0  0  0  0  0  0  0
    0.7306   -0.7641    1.0062 H   0  0  0  0  0  0  0  0  0  0  0  0
    0.9250   -0.4608   -0.7381 H   0  0  0  0  0  0  0  0  0  0  0  0
    3.0540    1.6564   -0.6707 H   0  0  0  0  0  0  0  0  0  0  0  0
    5.4110   -0.2980   -0.0351 H   0  0  0  0  0  0  0  0  0  0  0  0
    4.4948   -0.8860   -2.6001 H   0  0  0  0  0  0  0  0  0  0  0  0
    5.1894    0.9237   -3.7769 H   0  0  0  0  0  0  0  0  0  0  0  0
    4.2481    0.6066    2.2981 H   0  0  0  0  0  0  0  0  0  0  0  0
  1  2  1  0  0  0  0
  1 11  1  0  0  0  0
  1 12  1  0  0  0  0
  1 13  1  0  0  0  0
  2  3  1  0  0  0  0
  2  5  1  0  0  0  0
  3  4  1  0  0  0  0
  3 10  1  0  0  0  0
  3 14  1  0  0  0  0
  4  5  1  0  0  0  0
  4  7  1  0  0  0  0
  4 15  1  0  0  0  0
  5  6  2  0  0  0  0
  7  8  1  0  0  0  0
  7 16  1  0  0  0  0
  8  9  2  0  0  0  0
  8 17  1  0  0  0  0
 10 18  1  0  0  0  0
M  END
$$$$
