
 OpenBabel05052217073D

 14 13  0  0  1  0  0  0  0  0999 V2000
    1.0605    0.0663    0.0313 C   0  0  0  0  0  0  0  0  0  0  0  0
    2.5833    0.1490    0.1067 C   0  0  3  0  0  0  0  0  0  0  0  0
    3.0734    1.2181   -0.7484 N   0  0  0  0  0  0  0  0  0  0  0  0
    3.0736    0.4782    1.8243 S   0  0  0  0  0  0  0  0  0  0  0  0
    4.8735    0.4565    1.6262 C   0  0  0  0  0  0  0  0  0  0  0  0
    0.7348   -0.1244   -0.9980 H   0  0  0  0  0  0  0  0  0  0  0  0
    0.5786    0.9950    0.3603 H   0  0  0  0  0  0  0  0  0  0  0  0
    0.6766   -0.7547    0.6475 H   0  0  0  0  0  0  0  0  0  0  0  0
    3.0111   -0.8069   -0.2118 H   0  0  0  0  0  0  0  0  0  0  0  0
    2.7368    2.1005   -0.3636 H   0  0  0  0  0  0  0  0  0  0  0  0
    2.6538    1.1350   -1.6720 H   0  0  0  0  0  0  0  0  0  0  0  0
    5.3397    0.5400    2.6117 H   0  0  0  0  0  0  0  0  0  0  0  0
    5.2070    1.3037    1.0215 H   0  0  0  0  0  0  0  0  0  0  0  0
    5.2015   -0.4794    1.1671 H   0  0  0  0  0  0  0  0  0  0  0  0
  1  2  1  0  0  0  0
  1  6  1  0  0  0  0
  1  7  1  0  0  0  0
  1  8  1  0  0  0  0
  2  3  1  0  0  0  0
  2  4  1  0  0  0  0
  2  9  1  0  0  0  0
  3 10  1  0  0  0  0
  3 11  1  0  0  0  0
  4  5  1  0  0  0  0
  5 12  1  0  0  0  0
  5 13  1  0  0  0  0
  5 14  1  0  0  0  0
M  END
$$$$
