
 OpenBabel05052217073D

 18 17  0  0  1  0  0  0  0  0999 V2000
    0.9220   -0.0274    0.1098 C   0  0  0  0  0  0  0  0  0  0  0  0
    0.5458   -0.0198    1.5758 C   0  0  0  0  0  0  0  0  0  0  0  0
   -0.1269   -0.8982    2.1082 O   0  0  0  0  0  0  0  0  0  0  0  0
    2.3860   -0.0191   -0.0024 N   0  0  0  0  0  0  0  0  0  0  0  0
    2.8340   -0.0999   -1.3963 C   0  0  3  0  0  0  0  0  0  0  0  0
    2.4218    1.1188   -2.2744 C   0  0  0  0  0  0  0  0  0  0  0  0
    2.8699    1.0388   -3.6705 N   0  0  0  0  0  0  0  0  0  0  0  0
    4.6602   -0.2349   -1.3410 S   0  0  0  0  0  0  0  0  0  0  0  0
    0.4821    0.8744   -0.3237 H   0  0  0  0  0  0  0  0  0  0  0  0
    0.4865   -0.9126   -0.3647 H   0  0  0  0  0  0  0  0  0  0  0  0
    0.8837    0.8582    2.1516 H   0  0  0  0  0  0  0  0  0  0  0  0
    2.7522   -0.8525    0.4606 H   0  0  0  0  0  0  0  0  0  0  0  0
    2.4645   -1.0248   -1.8567 H   0  0  0  0  0  0  0  0  0  0  0  0
    2.7987    2.0489   -1.8306 H   0  0  0  0  0  0  0  0  0  0  0  0
    1.3307    1.1991   -2.3036 H   0  0  0  0  0  0  0  0  0  0  0  0
    3.8902    0.9837   -3.6864 H   0  0  0  0  0  0  0  0  0  0  0  0
    2.6187    1.8978   -4.1573 H   0  0  0  0  0  0  0  0  0  0  0  0
    4.8603    0.9535   -0.7524 H   0  0  0  0  0  0  0  0  0  0  0  0
  1  2  1  0  0  0  0
  1  4  1  0  0  0  0
  1  9  1  0  0  0  0
  1 10  1  0  0  0  0
  2  3  2  0  0  0  0
  2 11  1  0  0  0  0
  4  5  1  0  0  0  0
  4 12  1  0  0  0  0
  5  6  1  0  0  0  0
  5  8  1  0  0  0  0
  5 13  1  0  0  0  0
  6  7  1  0  0  0  0
  6 14  1  0  0  0  0
  6 15  1  0  0  0  0
  7 16  1  0  0  0  0
  7 17  1  0  0  0  0
  8 18  1  0  0  0  0
M  END
$$$$
