
 OpenBabel05052217073D

 19 18  0  0  1  0  0  0  0  0999 V2000
    2.9159    0.8552   -1.2781 C   0  0  0  0  0  0  0  0  0  0  0  0
    2.4902    0.0015   -0.0859 C   0  0  3  0  0  0  0  0  0  0  0  0
    3.0745   -1.4293   -0.0987 C   0  0  3  0  0  0  0  0  0  0  0  0
    4.6139   -1.4974   -0.0208 C   0  0  0  0  0  0  0  0  0  0  0  0
    5.3576   -0.5280    0.0304 O   0  0  0  0  0  0  0  0  0  0  0  0
    5.1057   -2.7603   -0.0832 O   0  0  0  0  0  0  0  0  0  0  0  0
    2.4687   -2.2428    0.9701 N   0  0  0  0  0  0  0  0  0  0  0  0
    2.3746   -3.6006    0.9003 C   0  0  0  0  0  0  0  0  0  0  0  0
    2.8636   -4.2469   -0.0179 O   0  0  0  0  0  0  0  0  0  0  0  0
    2.8122    0.8936    1.4862 S   0  0  0  0  0  0  0  0  0  0  0  0
    2.6612    0.3514   -2.2171 H   0  0  0  0  0  0  0  0  0  0  0  0
    3.9898    1.0614   -1.2932 H   0  0  0  0  0  0  0  0  0  0  0  0
    2.3933    1.8187   -1.2769 H   0  0  0  0  0  0  0  0  0  0  0  0
    1.3976   -0.0939   -0.1357 H   0  0  0  0  0  0  0  0  0  0  0  0
    2.8046   -1.8909   -1.0587 H   0  0  0  0  0  0  0  0  0  0  0  0
    4.4065   -3.4503   -0.1960 H   0  0  0  0  0  0  0  0  0  0  0  0
    2.2698   -1.7830    1.8554 H   0  0  0  0  0  0  0  0  0  0  0  0
    1.8833   -4.0509    1.7776 H   0  0  0  0  0  0  0  0  0  0  0  0
    4.1431    1.0088    1.3154 H   0  0  0  0  0  0  0  0  0  0  0  0
  1  2  1  0  0  0  0
  1 11  1  0  0  0  0
  1 12  1  0  0  0  0
  1 13  1  0  0  0  0
  2  3  1  0  0  0  0
  2 10  1  0  0  0  0
  2 14  1  0  0  0  0
  3  4  1  0  0  0  0
  3  7  1  0  0  0  0
  3 15  1  0  0  0  0
  4  5  2  0  0  0  0
  4  6  1  0  0  0  0
  6 16  1  0  0  0  0
  7  8  1  0  0  0  0
  7 17  1  0  0  0  0
  8  9  2  0  0  0  0
  8 18  1  0  0  0  0
 10 19  1  0  0  0  0
M  END
$$$$
