
 OpenBabel05052217073D

 18 18  0  0  1  0  0  0  0  0999 V2000
    0.8863   -0.0060    0.0281 C   0  0  0  0  0  0  0  0  0  0  0  0
    2.4028   -0.1232    0.0376 C   0  0  3  0  0  0  0  0  0  0  0  0
    2.9762    0.2028    1.4127 C   0  0  0  0  0  0  0  0  0  0  0  0
    2.5060    1.0420    2.1805 O   0  0  0  0  0  0  0  0  0  0  0  0
    2.8369   -1.4303   -0.3903 N   0  0  0  0  0  0  0  0  0  0  0  0
    2.3092   -2.7581   -0.1212 C   0  0  0  0  0  0  0  0  0  0  0  0
    3.5450   -3.3114   -0.8663 C   0  0  0  0  0  0  0  0  0  0  0  0
    4.0019   -1.8370   -0.9309 C   0  0  0  0  0  0  0  0  0  0  0  0
    4.9818   -1.2213   -1.2705 O   0  0  0  0  0  0  0  0  0  0  0  0
    0.5677    1.0152    0.2589 H   0  0  0  0  0  0  0  0  0  0  0  0
    0.4320   -0.6703    0.7724 H   0  0  0  0  0  0  0  0  0  0  0  0
    0.4814   -0.2768   -0.9530 H   0  0  0  0  0  0  0  0  0  0  0  0
    2.8471    0.5978   -0.6586 H   0  0  0  0  0  0  0  0  0  0  0  0
    3.9459   -0.2631    1.6524 H   0  0  0  0  0  0  0  0  0  0  0  0
    1.3505   -2.9450   -0.6122 H   0  0  0  0  0  0  0  0  0  0  0  0
    2.2535   -3.0026    0.9425 H   0  0  0  0  0  0  0  0  0  0  0  0
    3.3425   -3.7529   -1.8457 H   0  0  0  0  0  0  0  0  0  0  0  0
    4.1948   -3.9613   -0.2775 H   0  0  0  0  0  0  0  0  0  0  0  0
  1  2  1  0  0  0  0
  1 10  1  0  0  0  0
  1 11  1  0  0  0  0
  1 12  1  0  0  0  0
  2  3  1  0  0  0  0
  2  5  1  0  0  0  0
  2 13  1  0  0  0  0
  3  4  2  0  0  0  0
  3 14  1  0  0  0  0
  5  6  1  0  0  0  0
  5  8  1  0  0  0  0
  6  7  1  0  0  0  0
  6 15  1  0  0  0  0
  6 16  1  0  0  0  0
  7  8  1  0  0  0  0
  7 17  1  0  0  0  0
  7 18  1  0  0  0  0
  8  9  2  0  0  0  0
M  END
$$$$
