
 OpenBabel05052217073D

 13 12  0  0  0  0  0  0  0  0999 V2000
    1.0902   -0.0524   -0.1227 C   0  0  0  0  0  0  0  0  0  0  0  0
    2.8906   -0.1087    0.0401 S   0  0  0  0  0  0  0  0  0  0  0  0
    3.3509    0.3360   -1.6540 C   0  0  0  0  0  0  0  0  0  0  0  0
    4.7886    0.3286   -1.7034 N   0  0  0  0  0  0  0  0  0  0  0  0
    5.5038    1.1155   -2.5565 C   0  0  0  0  0  0  0  0  0  0  0  0
    5.0302    1.8952   -3.3719 O   0  0  0  0  0  0  0  0  0  0  0  0
    0.6427   -0.2902    0.8467 H   0  0  0  0  0  0  0  0  0  0  0  0
    0.7470   -0.7931   -0.8493 H   0  0  0  0  0  0  0  0  0  0  0  0
    0.7539    0.9443   -0.4201 H   0  0  0  0  0  0  0  0  0  0  0  0
    2.9652    1.3210   -1.9311 H   0  0  0  0  0  0  0  0  0  0  0  0
    2.9860   -0.4168   -2.3582 H   0  0  0  0  0  0  0  0  0  0  0  0
    5.2674   -0.2958   -1.0665 H   0  0  0  0  0  0  0  0  0  0  0  0
    6.5910    0.9726   -2.4333 H   0  0  0  0  0  0  0  0  0  0  0  0
  1  2  1  0  0  0  0
  1  7  1  0  0  0  0
  1  8  1  0  0  0  0
  1  9  1  0  0  0  0
  2  3  1  0  0  0  0
  3  4  1  0  0  0  0
  3 10  1  0  0  0  0
  3 11  1  0  0  0  0
  4  5  1  0  0  0  0
  4 12  1  0  0  0  0
  5  6  2  0  0  0  0
  5 13  1  0  0  0  0
M  END
$$$$
