
 OpenBabel05052217073D

 12 12  0  0  0  0  0  0  0  0999 V2000
    1.3829   -0.2213    0.0053 C   0  0  0  0  0  0  0  0  0  0  0  0
    0.8812    1.0799    0.0130 C   0  0  0  0  0  0  0  0  0  0  0  0
   -0.4966    1.2959    0.0116 C   0  0  0  0  0  0  0  0  0  0  0  0
   -1.3728    0.2110   -0.0053 C   0  0  0  0  0  0  0  0  0  0  0  0
   -0.8710   -1.0904   -0.0151 C   0  0  0  0  0  0  0  0  0  0  0  0
    0.5067   -1.3066   -0.0074 C   0  0  0  0  0  0  0  0  0  0  0  0
    2.4568   -0.3900    0.0095 H   0  0  0  0  0  0  0  0  0  0  0  0
    1.5640    1.9254    0.0199 H   0  0  0  0  0  0  0  0  0  0  0  0
   -0.8876    2.3098    0.0230 H   0  0  0  0  0  0  0  0  0  0  0  0
   -2.4467    0.3795   -0.0083 H   0  0  0  0  0  0  0  0  0  0  0  0
   -1.5538   -1.9361   -0.0302 H   0  0  0  0  0  0  0  0  0  0  0  0
    0.8977   -2.3207   -0.0101 H   0  0  0  0  0  0  0  0  0  0  0  0
  1  2  1  0  0  0  0
  1  6  2  0  0  0  0
  1  7  1  0  0  0  0
  2  3  2  0  0  0  0
  2  8  1  0  0  0  0
  3  4  1  0  0  0  0
  3  9  1  0  0  0  0
  4  5  2  0  0  0  0
  4 10  1  0  0  0  0
  5  6  1  0  0  0  0
  5 11  1  0  0  0  0
  6 12  1  0  0  0  0
M  END
$$$$
