
 OpenBabel05052217073D

 21 20  0  0  1  0  0  0  0  0999 V2000
    0.9771    1.5042   -0.3539 C   0  0  0  0  0  0  0  0  0  0  0  0
    2.4616    1.6543   -0.5447 C   0  0  0  0  0  0  0  0  0  0  0  0
    2.9532    2.2212   -1.5148 O   0  0  0  0  0  0  0  0  0  0  0  0
    3.2065    1.1013    0.4691 N   0  0  0  0  0  0  0  0  0  0  0  0
    4.6622    1.1759    0.4905 C   0  0  0  0  0  0  0  0  0  0  0  0
    5.2212    2.4453    1.1939 C   0  0  3  0  0  0  0  0  0  0  0  0
    4.7526    3.6815    0.5770 N   0  0  0  0  0  0  0  0  0  0  0  0
    4.7051    2.4303    2.9517 S   0  0  0  0  0  0  0  0  0  0  0  0
    5.5309    3.9391    3.5181 C   0  0  0  0  0  0  0  0  0  0  0  0
    0.4515    1.9677   -1.1933 H   0  0  0  0  0  0  0  0  0  0  0  0
    0.6664    1.9965    0.5717 H   0  0  0  0  0  0  0  0  0  0  0  0
    0.7151    0.4430   -0.3170 H   0  0  0  0  0  0  0  0  0  0  0  0
    2.7469    0.8741    1.3432 H   0  0  0  0  0  0  0  0  0  0  0  0
    5.0283    1.1432   -0.5433 H   0  0  0  0  0  0  0  0  0  0  0  0
    5.0224    0.2698    0.9911 H   0  0  0  0  0  0  0  0  0  0  0  0
    6.3146    2.4071    1.1527 H   0  0  0  0  0  0  0  0  0  0  0  0
    3.7496    3.7379    0.7491 H   0  0  0  0  0  0  0  0  0  0  0  0
    4.8074    3.5741   -0.4405 H   0  0  0  0  0  0  0  0  0  0  0  0
    5.3912    4.0310    4.5986 H   0  0  0  0  0  0  0  0  0  0  0  0
    5.0936    4.8227    3.0461 H   0  0  0  0  0  0  0  0  0  0  0  0
    6.6030    3.8967    3.3103 H   0  0  0  0  0  0  0  0  0  0  0  0
  1  2  1  0  0  0  0
  1 10  1  0  0  0  0
  1 11  1  0  0  0  0
  1 12  1  0  0  0  0
  2  3  2  0  0  0  0
  2  4  1  0  0  0  0
  4  5  1  0  0  0  0
  4 13  1  0  0  0  0
  5  6  1  0  0  0  0
  5 14  1  0  0  0  0
  5 15  1  0  0  0  0
  6  7  1  0  0  0  0
  6  8  1  0  0  0  0
  6 16  1  0  0  0  0
  7 17  1  0  0  0  0
  7 18  1  0  0  0  0
  8  9  1  0  0  0  0
  9 19  1  0  0  0  0
  9 20  1  0  0  0  0
  9 21  1  0  0  0  0
M  END
$$$$
