
 OpenBabel05052217073D

 18 17  0  0  1  0  0  0  0  0999 V2000
    1.0587    1.2045    1.1562 C   0  0  0  0  0  0  0  0  0  0  0  0
    2.5537    1.2985    1.2632 C   0  0  0  0  0  0  0  0  0  0  0  0
    3.1318    1.4977    2.3273 O   0  0  0  0  0  0  0  0  0  0  0  0
    3.2048    1.1933    0.0568 N   0  0  0  0  0  0  0  0  0  0  0  0
    4.6565    1.2881   -0.0504 C   0  0  0  0  0  0  0  0  0  0  0  0
    5.1797    2.7448   -0.1645 C   0  0  3  0  0  0  0  0  0  0  0  0
    4.8410    3.5923    0.9731 N   0  0  0  0  0  0  0  0  0  0  0  0
    6.9848    2.7312   -0.3593 S   0  0  0  0  0  0  0  0  0  0  0  0
    0.6196    1.2166    2.1580 H   0  0  0  0  0  0  0  0  0  0  0  0
    0.7732    0.2743    0.6585 H   0  0  0  0  0  0  0  0  0  0  0  0
    0.6785    2.0609    0.5926 H   0  0  0  0  0  0  0  0  0  0  0  0
    2.6689    1.0065   -0.7814 H   0  0  0  0  0  0  0  0  0  0  0  0
    4.9335    0.7174   -0.9445 H   0  0  0  0  0  0  0  0  0  0  0  0
    5.0963    0.7859    0.8205 H   0  0  0  0  0  0  0  0  0  0  0  0
    4.7544    3.2009   -1.0649 H   0  0  0  0  0  0  0  0  0  0  0  0
    5.1956    3.1509    1.8228 H   0  0  0  0  0  0  0  0  0  0  0  0
    3.8296    3.5545    1.1090 H   0  0  0  0  0  0  0  0  0  0  0  0
    7.2582    2.2581    0.8638 H   0  0  0  0  0  0  0  0  0  0  0  0
  1  2  1  0  0  0  0
  1  9  1  0  0  0  0
  1 10  1  0  0  0  0
  1 11  1  0  0  0  0
  2  3  2  0  0  0  0
  2  4  1  0  0  0  0
  4  5  1  0  0  0  0
  4 12  1  0  0  0  0
  5  6  1  0  0  0  0
  5 13  1  0  0  0  0
  5 14  1  0  0  0  0
  6  7  1  0  0  0  0
  6  8  1  0  0  0  0
  6 15  1  0  0  0  0
  7 16  1  0  0  0  0
  7 17  1  0  0  0  0
  8 18  1  0  0  0  0
M  END
$$$$
