
 OpenBabel05052217073D

 16 15  0  0  0  0  0  0  0  0999 V2000
    1.0650    0.0950    0.0443 C   0  0  0  0  0  0  0  0  0  0  0  0
    2.8589    0.1029   -0.1882 S   0  0  0  0  0  0  0  0  0  0  0  0
    3.3712    0.2772    1.5549 C   0  0  0  0  0  0  0  0  0  0  0  0
    4.8975    0.3140    1.6438 C   0  0  0  0  0  0  0  0  0  0  0  0
    5.3708    0.5100    3.0042 N   0  0  0  0  0  0  0  0  0  0  0  0
    5.5743   -0.5387    3.8616 C   0  0  0  0  0  0  0  0  0  0  0  0
    5.3546   -1.7150    3.6117 O   0  0  0  0  0  0  0  0  0  0  0  0
    0.5809   -0.0393   -0.9265 H   0  0  0  0  0  0  0  0  0  0  0  0
    0.7339    1.0462    0.4683 H   0  0  0  0  0  0  0  0  0  0  0  0
    0.7655   -0.7273    0.6986 H   0  0  0  0  0  0  0  0  0  0  0  0
    2.9716   -0.5579    2.1396 H   0  0  0  0  0  0  0  0  0  0  0  0
    2.9511    1.2058    1.9565 H   0  0  0  0  0  0  0  0  0  0  0  0
    5.3015    1.1456    1.0554 H   0  0  0  0  0  0  0  0  0  0  0  0
    5.3267   -0.6188    1.2598 H   0  0  0  0  0  0  0  0  0  0  0  0
    5.5693    1.4498    3.3252 H   0  0  0  0  0  0  0  0  0  0  0  0
    5.9608   -0.2029    4.8366 H   0  0  0  0  0  0  0  0  0  0  0  0
  1  2  1  0  0  0  0
  1  8  1  0  0  0  0
  1  9  1  0  0  0  0
  1 10  1  0  0  0  0
  2  3  1  0  0  0  0
  3  4  1  0  0  0  0
  3 11  1  0  0  0  0
  3 12  1  0  0  0  0
  4  5  1  0  0  0  0
  4 13  1  0  0  0  0
  4 14  1  0  0  0  0
  5  6  1  0  0  0  0
  5 15  1  0  0  0  0
  6  7  2  0  0  0  0
  6 16  1  0  0  0  0
M  END
$$$$
