
 OpenBabel05052217073D

 20 19  0  0  0  0  0  0  0  0999 V2000
    0.9800    0.0847    0.0706 C   0  0  0  0  0  0  0  0  0  0  0  0
    2.5012    0.0839    0.0749 C   0  0  0  0  0  0  0  0  0  0  0  0
    3.0023    0.9668   -0.9798 N   0  0  0  0  0  0  0  0  0  0  0  0
    4.4714    0.9866   -0.9890 C   0  0  0  0  0  0  0  0  0  0  0  0
    5.0172    1.9132   -2.0899 C   0  0  0  0  0  0  0  0  0  0  0  0
    6.4705    1.9337   -2.1298 N   0  0  0  0  0  0  0  0  0  0  0  0
    7.2045    2.8149   -1.3843 C   0  0  0  0  0  0  0  0  0  0  0  0
    6.7435    3.6633   -0.6319 O   0  0  0  0  0  0  0  0  0  0  0  0
    0.6004   -0.5774    0.8555 H   0  0  0  0  0  0  0  0  0  0  0  0
    0.5874   -0.2698   -0.8885 H   0  0  0  0  0  0  0  0  0  0  0  0
    0.5824    1.0884    0.2551 H   0  0  0  0  0  0  0  0  0  0  0  0
    2.8554   -0.9403   -0.0881 H   0  0  0  0  0  0  0  0  0  0  0  0
    2.8565    0.4156    1.0576 H   0  0  0  0  0  0  0  0  0  0  0  0
    2.6545    1.9131   -0.8158 H   0  0  0  0  0  0  0  0  0  0  0  0
    4.8489   -0.0284   -1.1644 H   0  0  0  0  0  0  0  0  0  0  0  0
    4.8516    1.3147   -0.0143 H   0  0  0  0  0  0  0  0  0  0  0  0
    4.6572    2.9364   -1.9305 H   0  0  0  0  0  0  0  0  0  0  0  0
    4.6703    1.5837   -3.0752 H   0  0  0  0  0  0  0  0  0  0  0  0
    6.9595    1.2824   -2.7306 H   0  0  0  0  0  0  0  0  0  0  0  0
    8.2888    2.6835   -1.5336 H   0  0  0  0  0  0  0  0  0  0  0  0
  1  2  1  0  0  0  0
  1  9  1  0  0  0  0
  1 10  1  0  0  0  0
  1 11  1  0  0  0  0
  2  3  1  0  0  0  0
  2 12  1  0  0  0  0
  2 13  1  0  0  0  0
  3  4  1  0  0  0  0
  3 14  1  0  0  0  0
  4  5  1  0  0  0  0
  4 15  1  0  0  0  0
  4 16  1  0  0  0  0
  5  6  1  0  0  0  0
  5 17  1  0  0  0  0
  5 18  1  0  0  0  0
  6  7  1  0  0  0  0
  6 19  1  0  0  0  0
  7  8  2  0  0  0  0
  7 20  1  0  0  0  0
M  END
$$$$
