
 OpenBabel05052217073D

 15 14  0  0  0  0  0  0  0  0999 V2000
    1.1804   -0.0077    0.0233 C   0  0  0  0  0  0  0  0  0  0  0  0
    2.6815    0.0511    0.0834 C   0  0  0  0  0  0  0  0  0  0  0  0
    3.2908    0.8089    0.8314 O   0  0  0  0  0  0  0  0  0  0  0  0
    3.3106   -0.8168   -0.7711 N   0  0  0  0  0  0  0  0  0  0  0  0
    4.7578   -0.8819   -0.8347 C   0  0  0  0  0  0  0  0  0  0  0  0
    5.2116   -1.9147   -1.8550 C   0  0  0  0  0  0  0  0  0  0  0  0
    4.4482   -2.5951   -2.5278 O   0  0  0  0  0  0  0  0  0  0  0  0
    6.5575   -2.0195   -1.9555 O   0  0  0  0  0  0  0  0  0  0  0  0
    0.7590    0.7107    0.7315 H   0  0  0  0  0  0  0  0  0  0  0  0
    0.8349   -1.0097    0.2917 H   0  0  0  0  0  0  0  0  0  0  0  0
    0.8367    0.2477   -0.9827 H   0  0  0  0  0  0  0  0  0  0  0  0
    2.7786   -1.4326   -1.3805 H   0  0  0  0  0  0  0  0  0  0  0  0
    5.1331   -1.1576    0.1556 H   0  0  0  0  0  0  0  0  0  0  0  0
    5.1345    0.1043   -1.1213 H   0  0  0  0  0  0  0  0  0  0  0  0
    7.0533   -1.4209   -1.3634 H   0  0  0  0  0  0  0  0  0  0  0  0
  1  2  1  0  0  0  0
  1  9  1  0  0  0  0
  1 10  1  0  0  0  0
  1 11  1  0  0  0  0
  2  3  2  0  0  0  0
  2  4  1  0  0  0  0
  4  5  1  0  0  0  0
  4 12  1  0  0  0  0
  5  6  1  0  0  0  0
  5 13  1  0  0  0  0
  5 14  1  0  0  0  0
  6  7  2  0  0  0  0
  6  8  1  0  0  0  0
  8 15  1  0  0  0  0
M  END
$$$$
