
 OpenBabel05052217073D

 21 21  0  0  1  0  0  0  0  0999 V2000
    0.9212    0.0167   -0.0567 C   0  0  0  0  0  0  0  0  0  0  0  0
    2.4347   -0.0160    0.0605 C   0  0  3  0  0  0  0  0  0  0  0  0
    3.0879    1.0380    0.9600 C   0  0  3  0  0  0  0  0  0  0  0  0
    4.4798    0.5791    1.2126 N   0  0  0  0  0  0  0  0  0  0  0  0
    4.4454   -0.8540    1.5413 C   0  0  3  0  0  0  0  0  0  0  0  0
    3.0087   -1.5978    0.7223 S   0  0  0  0  0  0  0  0  0  0  0  0
    5.7213   -1.5206    1.0477 C   0  0  0  0  0  0  0  0  0  0  0  0
    2.3540    1.3305    2.2845 C   0  0  0  0  0  0  0  0  0  0  0  0
    2.5609    0.7508    3.3440 O   0  0  0  0  0  0  0  0  0  0  0  0
    1.4721    2.3564    2.2077 O   0  0  0  0  0  0  0  0  0  0  0  0
    0.5904    0.9733   -0.4725 H   0  0  0  0  0  0  0  0  0  0  0  0
    0.4220   -0.1278    0.9057 H   0  0  0  0  0  0  0  0  0  0  0  0
    0.5706   -0.7705   -0.7361 H   0  0  0  0  0  0  0  0  0  0  0  0
    2.8605    0.0708   -0.9481 H   0  0  0  0  0  0  0  0  0  0  0  0
    3.1624    1.9899    0.4205 H   0  0  0  0  0  0  0  0  0  0  0  0
    4.8614    1.0757    2.0194 H   0  0  0  0  0  0  0  0  0  0  0  0
    4.3454   -1.0009    2.6218 H   0  0  0  0  0  0  0  0  0  0  0  0
    5.8749   -1.3678   -0.0277 H   0  0  0  0  0  0  0  0  0  0  0  0
    5.7026   -2.6000    1.2364 H   0  0  0  0  0  0  0  0  0  0  0  0
    6.5959   -1.1131    1.5665 H   0  0  0  0  0  0  0  0  0  0  0  0
    1.4341    2.8114    1.3455 H   0  0  0  0  0  0  0  0  0  0  0  0
  1  2  1  0  0  0  0
  1 11  1  0  0  0  0
  1 12  1  0  0  0  0
  1 13  1  0  0  0  0
  2  3  1  0  0  0  0
  2  6  1  0  0  0  0
  2 14  1  0  0  0  0
  3  4  1  0  0  0  0
  3  8  1  0  0  0  0
  3 15  1  0  0  0  0
  4  5  1  0  0  0  0
  4 16  1  0  0  0  0
  5  6  1  0  0  0  0
  5  7  1  0  0  0  0
  5 17  1  0  0  0  0
  7 18  1  0  0  0  0
  7 19  1  0  0  0  0
  7 20  1  0  0  0  0
  8  9  2  0  0  0  0
  8 10  1  0  0  0  0
 10 21  1  0  0  0  0
M  END
$$$$
