
 OpenBabel05052217073D

 20 19  0  0  0  0  0  0  0  0999 V2000
    0.9792   -1.5903   -0.3398 C   0  0  0  0  0  0  0  0  0  0  0  0
    2.4747   -1.7371   -0.2743 C   0  0  0  0  0  0  0  0  0  0  0  0
    3.0232   -2.6508    0.3332 O   0  0  0  0  0  0  0  0  0  0  0  0
    3.1526   -0.7388   -0.9369 N   0  0  0  0  0  0  0  0  0  0  0  0
    4.6002   -0.7567   -1.0390 C   0  0  0  0  0  0  0  0  0  0  0  0
    5.1062   -1.6236   -2.2045 C   0  0  0  0  0  0  0  0  0  0  0  0
    4.6655   -1.0953   -3.5084 N   0  0  0  0  0  0  0  0  0  0  0  0
    5.2023   -1.9137   -4.5917 C   0  0  0  0  0  0  0  0  0  0  0  0
    0.5071   -2.3797    0.2525 H   0  0  0  0  0  0  0  0  0  0  0  0
    0.6388   -1.6733   -1.3753 H   0  0  0  0  0  0  0  0  0  0  0  0
    0.6837   -0.6211    0.0723 H   0  0  0  0  0  0  0  0  0  0  0  0
    2.6515   -0.1994   -1.6313 H   0  0  0  0  0  0  0  0  0  0  0  0
    5.0179   -1.1328   -0.0985 H   0  0  0  0  0  0  0  0  0  0  0  0
    4.9279    0.2811   -1.1613 H   0  0  0  0  0  0  0  0  0  0  0  0
    4.7412   -2.6502   -2.0814 H   0  0  0  0  0  0  0  0  0  0  0  0
    6.2019   -1.6452   -2.1660 H   0  0  0  0  0  0  0  0  0  0  0  0
    5.0100   -0.1418   -3.6175 H   0  0  0  0  0  0  0  0  0  0  0  0
    4.8552   -2.9494   -4.5178 H   0  0  0  0  0  0  0  0  0  0  0  0
    6.2978   -1.9032   -4.5960 H   0  0  0  0  0  0  0  0  0  0  0  0
    4.8599   -1.5186   -5.5532 H   0  0  0  0  0  0  0  0  0  0  0  0
  1  2  1  0  0  0  0
  1  9  1  0  0  0  0
  1 10  1  0  0  0  0
  1 11  1  0  0  0  0
  2  3  2  0  0  0  0
  2  4  1  0  0  0  0
  4  5  1  0  0  0  0
  4 12  1  0  0  0  0
  5  6  1  0  0  0  0
  5 13  1  0  0  0  0
  5 14  1  0  0  0  0
  6  7  1  0  0  0  0
  6 15  1  0  0  0  0
  6 16  1  0  0  0  0
  7  8  1  0  0  0  0
  7 17  1  0  0  0  0
  8 18  1  0  0  0  0
  8 19  1  0  0  0  0
  8 20  1  0  0  0  0
M  END
$$$$
