
 OpenBabel05052217073D

 12 11  0  0  0  0  0  0  0  0999 V2000
    1.0445   -0.0974    0.0272 C   0  0  0  0  0  0  0  0  0  0  0  0
    0.5621   -0.8846   -1.1824 C   0  0  0  0  0  0  0  0  0  0  0  0
    1.3089   -1.4129   -1.9964 O   0  0  0  0  0  0  0  0  0  0  0  0
   -0.7848   -0.9520   -1.2825 O   0  0  0  0  0  0  0  0  0  0  0  0
    2.4928   -0.0744    0.0619 N   0  0  0  0  0  0  0  0  0  0  0  0
    3.1748    0.5696    1.0542 C   0  0  0  0  0  0  0  0  0  0  0  0
    2.6533    1.1705    1.9814 O   0  0  0  0  0  0  0  0  0  0  0  0
    0.6835   -0.5715    0.9443 H   0  0  0  0  0  0  0  0  0  0  0  0
    0.6833    0.9331   -0.0355 H   0  0  0  0  0  0  0  0  0  0  0  0
   -1.2644   -0.4887   -0.5689 H   0  0  0  0  0  0  0  0  0  0  0  0
    2.9959   -0.5550   -0.6801 H   0  0  0  0  0  0  0  0  0  0  0  0
    4.2670    0.4891    0.9292 H   0  0  0  0  0  0  0  0  0  0  0  0
  1  2  1  0  0  0  0
  1  5  1  0  0  0  0
  1  8  1  0  0  0  0
  1  9  1  0  0  0  0
  2  3  2  0  0  0  0
  2  4  1  0  0  0  0
  4 10  1  0  0  0  0
  5  6  1  0  0  0  0
  5 11  1  0  0  0  0
  6  7  2  0  0  0  0
  6 12  1  0  0  0  0
M  END
$$$$
