
 OpenBabel05052217073D

 14 14  0  0  1  0  0  0  0  0999 V2000
    3.4222    1.4523   -0.4277 C   0  0  0  0  0  0  0  0  0  0  0  0
    2.8628   -0.1293    0.2485 S   0  0  0  0  0  0  0  0  0  0  0  0
    3.2264   -1.1324   -1.2229 C   0  0  3  0  0  0  0  0  0  0  0  0
    2.8762   -2.6238   -1.0718 C   0  0  0  0  0  0  0  0  0  0  0  0
    4.3824   -2.8091   -0.8485 C   0  0  0  0  0  0  0  0  0  0  0  0
    5.1222   -3.6644   -0.4350 O   0  0  0  0  0  0  0  0  0  0  0  0
    4.6350   -1.5179   -1.2006 N   0  0  0  0  0  0  0  0  0  0  0  0
    3.4104    2.2095    0.3606 H   0  0  0  0  0  0  0  0  0  0  0  0
    2.7583    1.7779   -1.2335 H   0  0  0  0  0  0  0  0  0  0  0  0
    4.4415    1.3688   -0.8138 H   0  0  0  0  0  0  0  0  0  0  0  0
    2.9318   -0.6876   -2.1787 H   0  0  0  0  0  0  0  0  0  0  0  0
    2.5080   -3.1109   -1.9795 H   0  0  0  0  0  0  0  0  0  0  0  0
    2.2633   -2.9216   -0.2164 H   0  0  0  0  0  0  0  0  0  0  0  0
    5.3942   -1.0550   -0.7204 H   0  0  0  0  0  0  0  0  0  0  0  0
  1  2  1  0  0  0  0
  1  8  1  0  0  0  0
  1  9  1  0  0  0  0
  1 10  1  0  0  0  0
  2  3  1  0  0  0  0
  3  4  1  0  0  0  0
  3  7  1  0  0  0  0
  3 11  1  0  0  0  0
  4  5  1  0  0  0  0
  4 12  1  0  0  0  0
  4 13  1  0  0  0  0
  5  6  2  0  0  0  0
  5  7  1  0  0  0  0
  7 14  1  0  0  0  0
M  END
$$$$
