
 OpenBabel05052217073D

 19 18  0  0  1  0  0  0  0  0999 V2000
    0.8755   -0.1534   -0.0398 C   0  0  0  0  0  0  0  0  0  0  0  0
    2.3891   -0.0155    0.0630 C   0  0  0  0  0  0  0  0  0  0  0  0
    2.8724    0.9736    1.1368 C   0  0  3  0  0  0  0  0  0  0  0  0
    2.4591    0.5521    2.5750 C   0  0  0  0  0  0  0  0  0  0  0  0
    1.4465   -0.0396    2.8981 O   0  0  0  0  0  0  0  0  0  0  0  0
    3.3758    0.9682    3.4947 O   0  0  0  0  0  0  0  0  0  0  0  0
    4.3686    1.1152    1.1350 N   0  0  0  0  0  0  0  0  0  0  0  0
    4.8814    1.6372   -0.1335 C   0  0  0  0  0  0  0  0  0  0  0  0
    0.6214   -0.7281   -0.9365 H   0  0  0  0  0  0  0  0  0  0  0  0
    0.3929    0.8257   -0.1168 H   0  0  0  0  0  0  0  0  0  0  0  0
    0.4529   -0.6902    0.8122 H   0  0  0  0  0  0  0  0  0  0  0  0
    2.7178    0.3250   -0.9228 H   0  0  0  0  0  0  0  0  0  0  0  0
    2.8325   -1.0040    0.2283 H   0  0  0  0  0  0  0  0  0  0  0  0
    2.4278    1.9642    0.9771 H   0  0  0  0  0  0  0  0  0  0  0  0
    4.1010    1.4075    2.9891 H   0  0  0  0  0  0  0  0  0  0  0  0
    4.7701    0.1791    1.2608 H   0  0  0  0  0  0  0  0  0  0  0  0
    4.4568    2.6178   -0.3675 H   0  0  0  0  0  0  0  0  0  0  0  0
    4.6963    0.9550   -0.9686 H   0  0  0  0  0  0  0  0  0  0  0  0
    5.9680    1.7488   -0.0664 H   0  0  0  0  0  0  0  0  0  0  0  0
  1  2  1  0  0  0  0
  1  9  1  0  0  0  0
  1 10  1  0  0  0  0
  1 11  1  0  0  0  0
  2  3  1  0  0  0  0
  2 12  1  0  0  0  0
  2 13  1  0  0  0  0
  3  4  1  0  0  0  0
  3  7  1  0  0  0  0
  3 14  1  0  0  0  0
  4  5  2  0  0  0  0
  4  6  1  0  0  0  0
  6 15  1  0  0  0  0
  7  8  1  0  0  0  0
  7 16  1  0  0  0  0
  8 17  1  0  0  0  0
  8 18  1  0  0  0  0
  8 19  1  0  0  0  0
M  END
$$$$
