
 OpenBabel05052217073D

 24 23  0  0  0  0  0  0  0  0999 V2000
    0.9881   -0.0528   -0.0394 C   0  0  0  0  0  0  0  0  0  0  0  0
    2.5191   -0.0307   -0.0472 C   0  0  0  0  0  0  0  0  0  0  0  0
    3.0425   -0.3073    1.3654 C   0  0  0  0  0  0  0  0  0  0  0  0
    3.0461   -1.0367   -1.0902 C   0  0  0  0  0  0  0  0  0  0  0  0
    4.5084   -1.0386   -1.1478 N   0  0  0  0  0  0  0  0  0  0  0  0
    4.9971   -1.9992   -2.1514 C   0  0  0  0  0  0  0  0  0  0  0  0
    6.5367   -2.0117   -2.1901 C   0  0  0  0  0  0  0  0  0  0  0  0
    7.1246   -2.3802   -0.8965 N   0  0  0  0  0  0  0  0  0  0  0  0
    0.5913    0.6818    0.6692 H   0  0  0  0  0  0  0  0  0  0  0  0
    0.6083   -1.0396    0.2492 H   0  0  0  0  0  0  0  0  0  0  0  0
    0.5888    0.1880   -1.0296 H   0  0  0  0  0  0  0  0  0  0  0  0
    2.8401    0.9784   -0.3377 H   0  0  0  0  0  0  0  0  0  0  0  0
    2.8030   -1.3274    1.6838 H   0  0  0  0  0  0  0  0  0  0  0  0
    2.5968    0.3865    2.0867 H   0  0  0  0  0  0  0  0  0  0  0  0
    4.1274   -0.1759    1.4248 H   0  0  0  0  0  0  0  0  0  0  0  0
    2.6431   -0.7661   -2.0740 H   0  0  0  0  0  0  0  0  0  0  0  0
    2.6803   -2.0425   -0.8470 H   0  0  0  0  0  0  0  0  0  0  0  0
    4.8710   -1.3434   -0.2464 H   0  0  0  0  0  0  0  0  0  0  0  0
    4.6207   -1.7295   -3.1462 H   0  0  0  0  0  0  0  0  0  0  0  0
    4.6344   -3.0065   -1.9129 H   0  0  0  0  0  0  0  0  0  0  0  0
    6.9095   -1.0226   -2.4819 H   0  0  0  0  0  0  0  0  0  0  0  0
    6.8714   -2.7272   -2.9498 H   0  0  0  0  0  0  0  0  0  0  0  0
    6.8806   -1.6564   -0.2202 H   0  0  0  0  0  0  0  0  0  0  0  0
    8.1398   -2.3386   -0.9769 H   0  0  0  0  0  0  0  0  0  0  0  0
  1  2  1  0  0  0  0
  1  9  1  0  0  0  0
  1 10  1  0  0  0  0
  1 11  1  0  0  0  0
  2  3  1  0  0  0  0
  2  4  1  0  0  0  0
  2 12  1  0  0  0  0
  3 13  1  0  0  0  0
  3 14  1  0  0  0  0
  3 15  1  0  0  0  0
  4  5  1  0  0  0  0
  4 16  1  0  0  0  0
  4 17  1  0  0  0  0
  5  6  1  0  0  0  0
  5 18  1  0  0  0  0
  6  7  1  0  0  0  0
  6 19  1  0  0  0  0
  6 20  1  0  0  0  0
  7  8  1  0  0  0  0
  7 21  1  0  0  0  0
  7 22  1  0  0  0  0
  8 23  1  0  0  0  0
  8 24  1  0  0  0  0
M  END
$$$$
