
 OpenBabel05052217073D

 10 10  0  0  0  0  0  0  0  0999 V2000
    0.6137    1.1373   -0.0609 C   0  0  0  0  0  0  0  0  0  0  0  0
    1.5988   -0.0425    0.0130 C   0  0  0  0  0  0  0  0  0  0  0  0
    0.4599   -0.9263   -0.2529 N   0  0  0  0  0  0  0  0  0  0  0  0
   -0.4653    0.0462   -0.0241 C   0  0  0  0  0  0  0  0  0  0  0  0
   -1.6472   -0.0383    0.2003 O   0  0  0  0  0  0  0  0  0  0  0  0
    0.6278    1.7123   -0.9903 H   0  0  0  0  0  0  0  0  0  0  0  0
    0.6127    1.8005    0.8060 H   0  0  0  0  0  0  0  0  0  0  0  0
    2.0511   -0.2233    0.9925 H   0  0  0  0  0  0  0  0  0  0  0  0
    2.3549   -0.0730   -0.7750 H   0  0  0  0  0  0  0  0  0  0  0  0
    0.2654   -1.8450    0.1224 H   0  0  0  0  0  0  0  0  0  0  0  0
  1  2  1  0  0  0  0
  1  4  1  0  0  0  0
  1  6  1  0  0  0  0
  1  7  1  0  0  0  0
  2  3  1  0  0  0  0
  2  8  1  0  0  0  0
  2  9  1  0  0  0  0
  3  4  1  0  0  0  0
  3 10  1  0  0  0  0
  4  5  2  0  0  0  0
M  END
$$$$
