
 OpenBabel05052217073D

 21 22  0  0  1  0  0  0  0  0999 V2000
    0.8725   -0.0097   -0.1212 C   0  0  0  0  0  0  0  0  0  0  0  0
    2.3687    0.1409    0.1447 C   0  0  0  0  0  0  0  0  0  0  0  0
    3.1900   -0.9949   -0.4858 C   0  0  0  0  0  0  0  0  0  0  0  0
    4.5466   -0.4967   -0.6873 N   0  0  0  0  0  0  0  0  0  0  0  0
    4.7406    0.9645   -0.5846 C   0  0  3  0  0  0  0  0  0  0  0  0
    3.0475    1.6553   -0.6728 S   0  0  0  0  0  0  0  0  0  0  0  0
    5.5490    0.9037   -1.8768 C   0  0  0  0  0  0  0  0  0  0  0  0
    5.1009   -0.5631   -1.9361 C   0  0  0  0  0  0  0  0  0  0  0  0
    5.0700   -1.4304   -2.7791 O   0  0  0  0  0  0  0  0  0  0  0  0
    2.6225    0.2504    1.6550 C   0  0  0  0  0  0  0  0  0  0  0  0
    0.6489   -0.1039   -1.1894 H   0  0  0  0  0  0  0  0  0  0  0  0
    0.3065    0.8435    0.2705 H   0  0  0  0  0  0  0  0  0  0  0  0
    0.4846   -0.9094    0.3723 H   0  0  0  0  0  0  0  0  0  0  0  0
    2.7689   -1.2968   -1.4544 H   0  0  0  0  0  0  0  0  0  0  0  0
    3.2330   -1.8826    0.1510 H   0  0  0  0  0  0  0  0  0  0  0  0
    5.3063    1.2515    0.3084 H   0  0  0  0  0  0  0  0  0  0  0  0
    6.6289    1.0186   -1.7444 H   0  0  0  0  0  0  0  0  0  0  0  0
    5.2078    1.5188   -2.7121 H   0  0  0  0  0  0  0  0  0  0  0  0
    2.2053   -0.6160    2.1805 H   0  0  0  0  0  0  0  0  0  0  0  0
    2.1545    1.1480    2.0758 H   0  0  0  0  0  0  0  0  0  0  0  0
    3.6899    0.2838    1.9000 H   0  0  0  0  0  0  0  0  0  0  0  0
  1  2  1  0  0  0  0
  1 11  1  0  0  0  0
  1 12  1  0  0  0  0
  1 13  1  0  0  0  0
  2  3  1  0  0  0  0
  2  6  1  0  0  0  0
  2 10  1  0  0  0  0
  3  4  1  0  0  0  0
  3 14  1  0  0  0  0
  3 15  1  0  0  0  0
  4  5  1  0  0  0  0
  4  8  1  0  0  0  0
  5  6  1  0  0  0  0
  5  7  1  0  0  0  0
  5 16  1  0  0  0  0
  7  8  1  0  0  0  0
  7 17  1  0  0  0  0
  7 18  1  0  0  0  0
  8  9  2  0  0  0  0
 10 19  1  0  0  0  0
 10 20  1  0  0  0  0
 10 21  1  0  0  0  0
M  END
$$$$
