
 OpenBabel05052217073D

 17 16  0  0  0  0  0  0  0  0999 V2000
    0.9700   -0.0709    0.0371 C   0  0  0  0  0  0  0  0  0  0  0  0
    2.4289   -0.0714    0.0465 N   0  0  0  0  0  0  0  0  0  0  0  0
    2.9362    0.8383    1.0786 C   0  0  0  0  0  0  0  0  0  0  0  0
    4.4721    0.8555    1.1050 C   0  0  0  0  0  0  0  0  0  0  0  0
    4.9862    1.7548    2.1173 N   0  0  0  0  0  0  0  0  0  0  0  0
    5.2482    1.3765    3.4017 C   0  0  0  0  0  0  0  0  0  0  0  0
    5.6748    2.1503    4.2442 O   0  0  0  0  0  0  0  0  0  0  0  0
    0.6089   -0.7594   -0.7330 H   0  0  0  0  0  0  0  0  0  0  0  0
    0.5724    0.9245   -0.1867 H   0  0  0  0  0  0  0  0  0  0  0  0
    0.5685   -0.4094    0.9976 H   0  0  0  0  0  0  0  0  0  0  0  0
    2.7655    0.2232   -0.8701 H   0  0  0  0  0  0  0  0  0  0  0  0
    2.5669    0.5270    2.0632 H   0  0  0  0  0  0  0  0  0  0  0  0
    2.5684    1.8561    0.8974 H   0  0  0  0  0  0  0  0  0  0  0  0
    4.8713    1.1896    0.1405 H   0  0  0  0  0  0  0  0  0  0  0  0
    4.8629   -0.1489    1.3048 H   0  0  0  0  0  0  0  0  0  0  0  0
    5.1279    2.7359    1.9161 H   0  0  0  0  0  0  0  0  0  0  0  0
    5.0418    0.3131    3.6084 H   0  0  0  0  0  0  0  0  0  0  0  0
  1  2  1  0  0  0  0
  1  8  1  0  0  0  0
  1  9  1  0  0  0  0
  1 10  1  0  0  0  0
  2  3  1  0  0  0  0
  2 11  1  0  0  0  0
  3  4  1  0  0  0  0
  3 12  1  0  0  0  0
  3 13  1  0  0  0  0
  4  5  1  0  0  0  0
  4 14  1  0  0  0  0
  4 15  1  0  0  0  0
  5  6  1  0  0  0  0
  5 16  1  0  0  0  0
  6  7  2  0  0  0  0
  6 17  1  0  0  0  0
M  END
$$$$
