
 OpenBabel05052217073D

 21 21  0  0  1  0  0  0  0  0999 V2000
    1.3160    0.5535    1.3664 C   0  0  0  0  0  0  0  0  0  0  0  0
    0.8549    0.1853   -0.0572 C   0  0  0  0  0  0  0  0  0  0  0  0
   -0.0342    1.3023   -0.6494 C   0  0  3  0  0  0  0  0  0  0  0  0
   -1.3491    1.2067    0.0492 N   0  0  0  0  0  0  0  0  0  0  0  0
   -1.7649   -0.1994    0.0195 C   0  0  0  0  0  0  0  0  0  0  0  0
   -0.2829   -1.2328    0.0780 S   0  0  0  0  0  0  0  0  0  0  0  0
   -0.2513    1.3019   -2.1834 C   0  0  0  0  0  0  0  0  0  0  0  0
   -1.3344    1.1049   -2.7241 O   0  0  0  0  0  0  0  0  0  0  0  0
    0.8342    1.6542   -2.9077 O   0  0  0  0  0  0  0  0  0  0  0  0
    2.0775   -0.2098   -0.8848 C   0  0  0  0  0  0  0  0  0  0  0  0
    0.4812    0.7874    2.0377 H   0  0  0  0  0  0  0  0  0  0  0  0
    1.9647    1.4372    1.3405 H   0  0  0  0  0  0  0  0  0  0  0  0
    1.8929   -0.2582    1.8268 H   0  0  0  0  0  0  0  0  0  0  0  0
    0.3834    2.2912   -0.4136 H   0  0  0  0  0  0  0  0  0  0  0  0
   -2.0431    1.7444   -0.4762 H   0  0  0  0  0  0  0  0  0  0  0  0
   -2.3211   -0.4321   -0.8928 H   0  0  0  0  0  0  0  0  0  0  0  0
   -2.4094   -0.4197    0.8745 H   0  0  0  0  0  0  0  0  0  0  0  0
    1.6306    1.8767   -2.3943 H   0  0  0  0  0  0  0  0  0  0  0  0
    2.7622    0.6393   -0.9925 H   0  0  0  0  0  0  0  0  0  0  0  0
    1.8110   -0.5600   -1.8871 H   0  0  0  0  0  0  0  0  0  0  0  0
    2.6451   -1.0142   -0.4015 H   0  0  0  0  0  0  0  0  0  0  0  0
  1  2  1  0  0  0  0
  1 11  1  0  0  0  0
  1 12  1  0  0  0  0
  1 13  1  0  0  0  0
  2  3  1  0  0  0  0
  2  6  1  0  0  0  0
  2 10  1  0  0  0  0
  3  4  1  0  0  0  0
  3  7  1  0  0  0  0
  3 14  1  0  0  0  0
  4  5  1  0  0  0  0
  4 15  1  0  0  0  0
  5  6  1  0  0  0  0
  5 16  1  0  0  0  0
  5 17  1  0  0  0  0
  7  8  2  0  0  0  0
  7  9  1  0  0  0  0
  9 18  1  0  0  0  0
 10 19  1  0  0  0  0
 10 20  1  0  0  0  0
 10 21  1  0  0  0  0
M  END
$$$$
