
 OpenBabel05052217073D

  4  3  0  0  0  0  0  0  0  0999 V2000
    0.9582   -0.0019    0.0515 C   0  0  0  0  0  0  0  0  0  0  0  0
    2.1829   -0.0019    0.0515 O   0  0  0  0  0  0  0  0  0  0  0  0
    0.3708    0.6207    0.7450 H   0  0  0  0  0  0  0  0  0  0  0  0
    0.3708   -0.6245   -0.6421 H   0  0  0  0  0  0  0  0  0  0  0  0
  1  2  2  0  0  0  0
  1  3  1  0  0  0  0
  1  4  1  0  0  0  0
M  END
$$$$
