
 OpenBabel05052217073D

 20 19  0  0  0  0  0  0  0  0999 V2000
    3.0524   -1.4637    0.2655 C   0  0  0  0  0  0  0  0  0  0  0  0
    2.5899   -0.0492   -0.0502 C   0  0  0  0  0  0  0  0  0  0  0  0
    3.0700    0.9706    0.9805 C   0  0  0  0  0  0  0  0  0  0  0  0
    4.5090    1.0905    1.0209 N   0  0  0  0  0  0  0  0  0  0  0  0
    5.2156    1.8917    0.1507 C   0  0  0  0  0  0  0  0  0  0  0  0
    4.6938    2.5989   -0.7025 O   0  0  0  0  0  0  0  0  0  0  0  0
    6.7372    1.7996    0.3200 C   0  0  0  0  0  0  0  0  0  0  0  0
    7.1009    1.3591    1.6842 N   0  0  0  0  0  0  0  0  0  0  0  0
    2.6527   -2.1657   -0.4738 H   0  0  0  0  0  0  0  0  0  0  0  0
    2.7040   -1.7781    1.2546 H   0  0  0  0  0  0  0  0  0  0  0  0
    4.1439   -1.5402    0.2441 H   0  0  0  0  0  0  0  0  0  0  0  0
    1.4938   -0.0341   -0.0774 H   0  0  0  0  0  0  0  0  0  0  0  0
    2.9404    0.2292   -1.0514 H   0  0  0  0  0  0  0  0  0  0  0  0
    2.7353    0.6933    1.9860 H   0  0  0  0  0  0  0  0  0  0  0  0
    2.6455    1.9521    0.7423 H   0  0  0  0  0  0  0  0  0  0  0  0
    5.0666    0.4843    1.6161 H   0  0  0  0  0  0  0  0  0  0  0  0
    7.1671    2.7885    0.1314 H   0  0  0  0  0  0  0  0  0  0  0  0
    7.1236    1.0867   -0.4136 H   0  0  0  0  0  0  0  0  0  0  0  0
    6.6747    2.0108    2.3467 H   0  0  0  0  0  0  0  0  0  0  0  0
    8.1080    1.4873    1.7942 H   0  0  0  0  0  0  0  0  0  0  0  0
  1  2  1  0  0  0  0
  1  9  1  0  0  0  0
  1 10  1  0  0  0  0
  1 11  1  0  0  0  0
  2  3  1  0  0  0  0
  2 12  1  0  0  0  0
  2 13  1  0  0  0  0
  3  4  1  0  0  0  0
  3 14  1  0  0  0  0
  3 15  1  0  0  0  0
  4  5  1  0  0  0  0
  4 16  1  0  0  0  0
  5  6  2  0  0  0  0
  5  7  1  0  0  0  0
  7  8  1  0  0  0  0
  7 17  1  0  0  0  0
  7 18  1  0  0  0  0
  8 19  1  0  0  0  0
  8 20  1  0  0  0  0
M  END
$$$$
