
 OpenBabel05052217073D

 12 12  0  0  0  0  0  0  0  0999 V2000
   -1.3845    0.7617    0.0172 C   0  0  0  0  0  0  0  0  0  0  0  0
    0.0170    1.3385   -0.2025 C   0  0  0  0  0  0  0  0  0  0  0  0
    1.1408   -0.0466    0.0376 S   0  0  0  0  0  0  0  0  0  0  0  0
   -0.1490   -1.2335   -0.3415 C   0  0  0  0  0  0  0  0  0  0  0  0
   -1.3734   -0.6960    0.2354 N   0  0  0  0  0  0  0  0  0  0  0  0
   -2.0219    0.9979   -0.8431 H   0  0  0  0  0  0  0  0  0  0  0  0
   -1.8537    1.2450    0.8827 H   0  0  0  0  0  0  0  0  0  0  0  0
    0.2438    2.1501    0.4937 H   0  0  0  0  0  0  0  0  0  0  0  0
    0.1259    1.7058   -1.2279 H   0  0  0  0  0  0  0  0  0  0  0  0
    0.0876   -2.2148    0.0796 H   0  0  0  0  0  0  0  0  0  0  0  0
   -0.2445   -1.3417   -1.4269 H   0  0  0  0  0  0  0  0  0  0  0  0
   -1.3088   -0.8546    1.2430 H   0  0  0  0  0  0  0  0  0  0  0  0
  1  2  1  0  0  0  0
  1  5  1  0  0  0  0
  1  6  1  0  0  0  0
  1  7  1  0  0  0  0
  2  3  1  0  0  0  0
  2  8  1  0  0  0  0
  2  9  1  0  0  0  0
  3  4  1  0  0  0  0
  4  5  1  0  0  0  0
  4 10  1  0  0  0  0
  4 11  1  0  0  0  0
  5 12  1  0  0  0  0
M  END
$$$$
