
 OpenBabel05052217073D

 22 21  0  0  1  0  0  0  0  0999 V2000
    0.8691    0.0551   -0.0829 C   0  0  0  0  0  0  0  0  0  0  0  0
    2.3979    0.0046   -0.1196 C   0  0  3  0  0  0  0  0  0  0  0  0
    2.9641   -0.6117    1.1663 C   0  0  0  0  0  0  0  0  0  0  0  0
    2.6397    0.1975    2.3956 C   0  0  0  0  0  0  0  0  0  0  0  0
    2.4192    1.4039    2.3880 O   0  0  0  0  0  0  0  0  0  0  0  0
    2.9711   -1.0455   -1.5252 S   0  0  0  0  0  0  0  0  0  0  0  0
    2.3413   -0.0755   -2.9394 C   0  0  0  0  0  0  0  0  0  0  0  0
    2.6821   -0.7683   -4.2625 C   0  0  0  0  0  0  0  0  0  0  0  0
    2.1257   -0.0285   -5.3996 N   0  0  0  0  0  0  0  0  0  0  0  0
    0.5112    0.6318    0.7757 H   0  0  0  0  0  0  0  0  0  0  0  0
    0.4340   -0.9476   -0.0089 H   0  0  0  0  0  0  0  0  0  0  0  0
    0.4553    0.5483   -0.9661 H   0  0  0  0  0  0  0  0  0  0  0  0
    2.8020    1.0140   -0.2575 H   0  0  0  0  0  0  0  0  0  0  0  0
    4.0562   -0.6954    1.1282 H   0  0  0  0  0  0  0  0  0  0  0  0
    2.5531   -1.6154    1.3255 H   0  0  0  0  0  0  0  0  0  0  0  0
    2.6640   -0.3631    3.3468 H   0  0  0  0  0  0  0  0  0  0  0  0
    2.7791    0.9274   -2.9091 H   0  0  0  0  0  0  0  0  0  0  0  0
    1.2542    0.0109   -2.8617 H   0  0  0  0  0  0  0  0  0  0  0  0
    2.2805   -1.7877   -4.2797 H   0  0  0  0  0  0  0  0  0  0  0  0
    3.7708   -0.8341   -4.3889 H   0  0  0  0  0  0  0  0  0  0  0  0
    1.1068   -0.0439   -5.3490 H   0  0  0  0  0  0  0  0  0  0  0  0
    2.3697   -0.5148   -6.2622 H   0  0  0  0  0  0  0  0  0  0  0  0
  1  2  1  0  0  0  0
  1 10  1  0  0  0  0
  1 11  1  0  0  0  0
  1 12  1  0  0  0  0
  2  3  1  0  0  0  0
  2  6  1  0  0  0  0
  2 13  1  0  0  0  0
  3  4  1  0  0  0  0
  3 14  1  0  0  0  0
  3 15  1  0  0  0  0
  4  5  2  0  0  0  0
  4 16  1  0  0  0  0
  6  7  1  0  0  0  0
  7  8  1  0  0  0  0
  7 17  1  0  0  0  0
  7 18  1  0  0  0  0
  8  9  1  0  0  0  0
  8 19  1  0  0  0  0
  8 20  1  0  0  0  0
  9 21  1  0  0  0  0
  9 22  1  0  0  0  0
M  END
$$$$
