
 OpenBabel05052217073D

 15 14  0  0  1  0  0  0  0  0999 V2000
    0.9133   -0.0360    0.0036 C   0  0  0  0  0  0  0  0  0  0  0  0
    2.4322    0.1253    0.0224 C   0  0  3  0  0  0  0  0  0  0  0  0
    2.9403    0.8987    1.2412 C   0  0  0  0  0  0  0  0  0  0  0  0
    2.3707    2.2965    1.3050 C   0  0  0  0  0  0  0  0  0  0  0  0
    2.0567    2.9665    0.3380 O   0  0  0  0  0  0  0  0  0  0  0  0
    2.2710    2.7615    2.5711 O   0  0  0  0  0  0  0  0  0  0  0  0
    3.1928   -1.5441    0.0303 S   0  0  0  0  0  0  0  0  0  0  0  0
    0.4135    0.9362   -0.0451 H   0  0  0  0  0  0  0  0  0  0  0  0
    0.5463   -0.5481    0.9004 H   0  0  0  0  0  0  0  0  0  0  0  0
    0.5868   -0.6029   -0.8758 H   0  0  0  0  0  0  0  0  0  0  0  0
    2.7543    0.6242   -0.8980 H   0  0  0  0  0  0  0  0  0  0  0  0
    4.0310    1.0040    1.2068 H   0  0  0  0  0  0  0  0  0  0  0  0
    2.6721    0.3651    2.1608 H   0  0  0  0  0  0  0  0  0  0  0  0
    2.5841    2.1416    3.2571 H   0  0  0  0  0  0  0  0  0  0  0  0
    2.5262   -2.0262    1.0909 H   0  0  0  0  0  0  0  0  0  0  0  0
  1  2  1  0  0  0  0
  1  8  1  0  0  0  0
  1  9  1  0  0  0  0
  1 10  1  0  0  0  0
  2  3  1  0  0  0  0
  2  7  1  0  0  0  0
  2 11  1  0  0  0  0
  3  4  1  0  0  0  0
  3 12  1  0  0  0  0
  3 13  1  0  0  0  0
  4  5  2  0  0  0  0
  4  6  1  0  0  0  0
  6 14  1  0  0  0  0
  7 15  1  0  0  0  0
M  END
$$$$
