
 OpenBabel05052217073D

 23 22  0  0  0  0  0  0  0  0999 V2000
    0.9149   -0.1209    0.0398 C   0  0  0  0  0  0  0  0  0  0  0  0
    2.4370   -0.1005    0.0214 C   0  0  0  0  0  0  0  0  0  0  0  0
    2.9379    1.3255   -0.1923 C   0  0  0  0  0  0  0  0  0  0  0  0
    4.4022    1.3799   -0.1560 N   0  0  0  0  0  0  0  0  0  0  0  0
    4.8907    2.7514   -0.3740 C   0  0  0  0  0  0  0  0  0  0  0  0
    4.4900    3.7400    0.7374 C   0  0  0  0  0  0  0  0  0  0  0  0
    4.9944    5.0797    0.5051 N   0  0  0  0  0  0  0  0  0  0  0  0
    4.2955    5.9827   -0.2520 C   0  0  0  0  0  0  0  0  0  0  0  0
    3.2343    5.7711   -0.8203 O   0  0  0  0  0  0  0  0  0  0  0  0
    0.5462   -1.1369    0.2036 H   0  0  0  0  0  0  0  0  0  0  0  0
    0.5089    0.2440   -0.9101 H   0  0  0  0  0  0  0  0  0  0  0  0
    0.5257    0.5152    0.8414 H   0  0  0  0  0  0  0  0  0  0  0  0
    2.8041   -0.7604   -0.7734 H   0  0  0  0  0  0  0  0  0  0  0  0
    2.8115   -0.4920    0.9749 H   0  0  0  0  0  0  0  0  0  0  0  0
    2.5144    1.9429    0.6051 H   0  0  0  0  0  0  0  0  0  0  0  0
    2.5699    1.7067   -1.1522 H   0  0  0  0  0  0  0  0  0  0  0  0
    4.7699    0.7825   -0.8949 H   0  0  0  0  0  0  0  0  0  0  0  0
    4.5633    3.1180   -1.3548 H   0  0  0  0  0  0  0  0  0  0  0  0
    5.9861    2.7111   -0.4180 H   0  0  0  0  0  0  0  0  0  0  0  0
    4.8828    3.4046    1.7031 H   0  0  0  0  0  0  0  0  0  0  0  0
    3.4017    3.8143    0.8238 H   0  0  0  0  0  0  0  0  0  0  0  0
    5.8815    5.3473    0.9093 H   0  0  0  0  0  0  0  0  0  0  0  0
    4.8081    6.9575   -0.3016 H   0  0  0  0  0  0  0  0  0  0  0  0
  1  2  1  0  0  0  0
  1 10  1  0  0  0  0
  1 11  1  0  0  0  0
  1 12  1  0  0  0  0
  2  3  1  0  0  0  0
  2 13  1  0  0  0  0
  2 14  1  0  0  0  0
  3  4  1  0  0  0  0
  3 15  1  0  0  0  0
  3 16  1  0  0  0  0
  4  5  1  0  0  0  0
  4 17  1  0  0  0  0
  5  6  1  0  0  0  0
  5 18  1  0  0  0  0
  5 19  1  0  0  0  0
  6  7  1  0  0  0  0
  6 20  1  0  0  0  0
  6 21  1  0  0  0  0
  7  8  1  0  0  0  0
  7 22  1  0  0  0  0
  8  9  2  0  0  0  0
  8 23  1  0  0  0  0
M  END
$$$$
