
 OpenBabel05052217073D

 19 18  0  0  0  0  0  0  0  0999 V2000
    1.0590   -0.0581   -0.1238 C   0  0  0  0  0  0  0  0  0  0  0  0
    2.5614   -0.0367   -0.0389 C   0  0  0  0  0  0  0  0  0  0  0  0
    3.1625    0.2244    0.9968 O   0  0  0  0  0  0  0  0  0  0  0  0
    3.1921   -0.3340   -1.2182 N   0  0  0  0  0  0  0  0  0  0  0  0
    4.6389   -0.3587   -1.3162 C   0  0  0  0  0  0  0  0  0  0  0  0
    5.0664   -0.7179   -2.7405 C   0  0  0  0  0  0  0  0  0  0  0  0
    4.2472   -0.9423   -3.6307 O   0  0  0  0  0  0  0  0  0  0  0  0
    6.4322   -0.7651   -2.9279 N   0  0  0  0  0  0  0  0  0  0  0  0
    7.0257   -1.0867   -4.2033 C   0  0  0  0  0  0  0  0  0  0  0  0
    0.6356    0.1886    0.8547 H   0  0  0  0  0  0  0  0  0  0  0  0
    0.7134   -1.0543   -0.4132 H   0  0  0  0  0  0  0  0  0  0  0  0
    0.7134    0.6818   -0.8509 H   0  0  0  0  0  0  0  0  0  0  0  0
    2.6646   -0.5464   -2.0604 H   0  0  0  0  0  0  0  0  0  0  0  0
    5.0250   -1.1041   -0.6138 H   0  0  0  0  0  0  0  0  0  0  0  0
    5.0250    0.6305   -1.0512 H   0  0  0  0  0  0  0  0  0  0  0  0
    7.0485   -0.5687   -2.1488 H   0  0  0  0  0  0  0  0  0  0  0  0
    6.2694   -1.2794   -4.9678 H   0  0  0  0  0  0  0  0  0  0  0  0
    7.6525   -1.9728   -4.0756 H   0  0  0  0  0  0  0  0  0  0  0  0
    7.6525   -0.2459   -4.5110 H   0  0  0  0  0  0  0  0  0  0  0  0
  1  2  1  0  0  0  0
  1 10  1  0  0  0  0
  1 11  1  0  0  0  0
  1 12  1  0  0  0  0
  2  3  2  0  0  0  0
  2  4  1  0  0  0  0
  4  5  1  0  0  0  0
  4 13  1  0  0  0  0
  5  6  1  0  0  0  0
  5 14  1  0  0  0  0
  5 15  1  0  0  0  0
  6  7  2  0  0  0  0
  6  8  1  0  0  0  0
  8  9  1  0  0  0  0
  8 16  1  0  0  0  0
  9 17  1  0  0  0  0
  9 18  1  0  0  0  0
  9 19  1  0  0  0  0
M  END
$$$$
