
 OpenBabel05052217073D

 18 17  0  0  1  0  0  0  0  0999 V2000
    1.0110    0.1607   -0.0647 C   0  0  0  0  0  0  0  0  0  0  0  0
    2.5408    0.0866   -0.1122 C   0  0  3  0  0  0  0  0  0  0  0  0
    3.0376   -1.0814   -0.9692 C   0  0  0  0  0  0  0  0  0  0  0  0
    2.5630   -2.4224   -0.4640 C   0  0  0  0  0  0  0  0  0  0  0  0
    2.3426   -2.6934    0.7029 O   0  0  0  0  0  0  0  0  0  0  0  0
    2.4584   -3.3416   -1.4546 O   0  0  0  0  0  0  0  0  0  0  0  0
    3.1030    1.7009   -0.8171 S   0  0  0  0  0  0  0  0  0  0  0  0
    4.8985    1.4809   -0.8075 C   0  0  0  0  0  0  0  0  0  0  0  0
    0.5766   -0.7532    0.3519 H   0  0  0  0  0  0  0  0  0  0  0  0
    0.5800    0.3005   -1.0633 H   0  0  0  0  0  0  0  0  0  0  0  0
    0.6745    0.9868    0.5727 H   0  0  0  0  0  0  0  0  0  0  0  0
    2.9231    0.0058    0.9115 H   0  0  0  0  0  0  0  0  0  0  0  0
    4.1315   -1.1344   -0.9641 H   0  0  0  0  0  0  0  0  0  0  0  0
    2.7003   -0.9498   -2.0025 H   0  0  0  0  0  0  0  0  0  0  0  0
    2.6919   -3.0080   -2.3423 H   0  0  0  0  0  0  0  0  0  0  0  0
    5.3687    2.4304   -1.0795 H   0  0  0  0  0  0  0  0  0  0  0  0
    5.2003    0.7387   -1.5499 H   0  0  0  0  0  0  0  0  0  0  0  0
    5.2512    1.1885    0.1841 H   0  0  0  0  0  0  0  0  0  0  0  0
  1  2  1  0  0  0  0
  1  9  1  0  0  0  0
  1 10  1  0  0  0  0
  1 11  1  0  0  0  0
  2  3  1  0  0  0  0
  2  7  1  0  0  0  0
  2 12  1  0  0  0  0
  3  4  1  0  0  0  0
  3 13  1  0  0  0  0
  3 14  1  0  0  0  0
  4  5  2  0  0  0  0
  4  6  1  0  0  0  0
  6 15  1  0  0  0  0
  7  8  1  0  0  0  0
  8 16  1  0  0  0  0
  8 17  1  0  0  0  0
  8 18  1  0  0  0  0
M  END
$$$$
