
 OpenBabel05052217073D

 16 15  0  0  1  0  0  0  0  0999 V2000
    1.0090   -0.0329    0.2205 C   0  0  0  0  0  0  0  0  0  0  0  0
    2.5206   -0.0692    0.0112 C   0  0  3  0  0  0  0  0  0  0  0  0
    2.9492    0.5920   -1.2173 N   0  0  0  0  0  0  0  0  0  0  0  0
    2.4862   -0.1051   -2.4222 C   0  0  0  0  0  0  0  0  0  0  0  0
    3.0478    0.6006   -3.6361 C   0  0  0  0  0  0  0  0  0  0  0  0
    3.7282    0.0393   -4.4922 O   0  0  0  0  0  0  0  0  0  0  0  0
    3.3243    0.8012    1.3911 S   0  0  0  0  0  0  0  0  0  0  0  0
    0.4951   -0.6562   -0.5197 H   0  0  0  0  0  0  0  0  0  0  0  0
    0.6082    0.9833    0.1330 H   0  0  0  0  0  0  0  0  0  0  0  0
    0.7317   -0.4256    1.2057 H   0  0  0  0  0  0  0  0  0  0  0  0
    2.8749   -1.1058    0.0362 H   0  0  0  0  0  0  0  0  0  0  0  0
    3.9726    0.5833   -1.2079 H   0  0  0  0  0  0  0  0  0  0  0  0
    1.3966   -0.0663   -2.5139 H   0  0  0  0  0  0  0  0  0  0  0  0
    2.8162   -1.1486   -2.4339 H   0  0  0  0  0  0  0  0  0  0  0  0
    2.7791    1.6671   -3.7371 H   0  0  0  0  0  0  0  0  0  0  0  0
    2.7649    1.9936    1.1385 H   0  0  0  0  0  0  0  0  0  0  0  0
  1  2  1  0  0  0  0
  1  8  1  0  0  0  0
  1  9  1  0  0  0  0
  1 10  1  0  0  0  0
  2  3  1  0  0  0  0
  2  7  1  0  0  0  0
  2 11  1  0  0  0  0
  3  4  1  0  0  0  0
  3 12  1  0  0  0  0
  4  5  1  0  0  0  0
  4 13  1  0  0  0  0
  4 14  1  0  0  0  0
  5  6  2  0  0  0  0
  5 15  1  0  0  0  0
  7 16  1  0  0  0  0
M  END
$$$$
