
 OpenBabel05052217073D

 18 17  0  0  0  0  0  0  0  0999 V2000
    2.1691   -1.2124    2.9489 C   0  0  0  0  0  0  0  0  0  0  0  0
    2.7615   -0.5287    1.9611 C   0  0  0  0  0  0  0  0  0  0  0  0
    3.2934   -1.1515    0.7041 C   0  0  0  0  0  0  0  0  0  0  0  0
    4.7712   -0.8264    0.5416 C   0  0  0  0  0  0  0  0  0  0  0  0
    5.1652    0.2200    0.0331 O   0  0  0  0  0  0  0  0  0  0  0  0
    5.6301   -1.7842    1.0233 N   0  0  0  0  0  0  0  0  0  0  0  0
    7.0617   -1.5854    0.9655 C   0  0  0  0  0  0  0  0  0  0  0  0
    7.7984   -2.7296    1.6266 C   0  0  0  0  0  0  0  0  0  0  0  0
    7.2403   -3.6733    2.1837 O   0  0  0  0  0  0  0  0  0  0  0  0
    1.7952   -0.7002    3.8308 H   0  0  0  0  0  0  0  0  0  0  0  0
    2.0334   -2.2885    2.9020 H   0  0  0  0  0  0  0  0  0  0  0  0
    2.8641    0.5521    2.0510 H   0  0  0  0  0  0  0  0  0  0  0  0
    2.7620   -0.7449   -0.1638 H   0  0  0  0  0  0  0  0  0  0  0  0
    3.1478   -2.2372    0.6898 H   0  0  0  0  0  0  0  0  0  0  0  0
    5.2797   -2.5595    1.5798 H   0  0  0  0  0  0  0  0  0  0  0  0
    7.3193   -0.6524    1.4751 H   0  0  0  0  0  0  0  0  0  0  0  0
    7.3651   -1.5234   -0.0836 H   0  0  0  0  0  0  0  0  0  0  0  0
    8.8985   -2.6626    1.5900 H   0  0  0  0  0  0  0  0  0  0  0  0
  1  2  2  0  0  0  0
  1 10  1  0  0  0  0
  1 11  1  0  0  0  0
  2  3  1  0  0  0  0
  2 12  1  0  0  0  0
  3  4  1  0  0  0  0
  3 13  1  0  0  0  0
  3 14  1  0  0  0  0
  4  5  2  0  0  0  0
  4  6  1  0  0  0  0
  6  7  1  0  0  0  0
  6 15  1  0  0  0  0
  7  8  1  0  0  0  0
  7 16  1  0  0  0  0
  7 17  1  0  0  0  0
  8  9  2  0  0  0  0
  8 18  1  0  0  0  0
M  END
$$$$
