
 OpenBabel05052217073D

 17 16  0  0  1  0  0  0  0  0999 V2000
    0.9853    0.0043    0.1071 C   0  0  0  0  0  0  0  0  0  0  0  0
    2.5033    0.0883    0.1082 C   0  0  3  0  0  0  0  0  0  0  0  0
    2.9706    1.5407    0.0142 C   0  0  0  0  0  0  0  0  0  0  0  0
    2.3840    2.4136   -0.6256 O   0  0  0  0  0  0  0  0  0  0  0  0
    3.0549   -0.5307    1.3135 N   0  0  0  0  0  0  0  0  0  0  0  0
    4.3338   -1.0340    1.3441 C   0  0  0  0  0  0  0  0  0  0  0  0
    5.0819   -1.0164    0.3732 O   0  0  0  0  0  0  0  0  0  0  0  0
    4.7660   -1.5751    2.6808 C   0  0  0  0  0  0  0  0  0  0  0  0
    0.5675    0.4345   -0.8092 H   0  0  0  0  0  0  0  0  0  0  0  0
    0.5576    0.5504    0.9559 H   0  0  0  0  0  0  0  0  0  0  0  0
    0.6534   -1.0368    0.1779 H   0  0  0  0  0  0  0  0  0  0  0  0
    2.9144   -0.4328   -0.7635 H   0  0  0  0  0  0  0  0  0  0  0  0
    3.9543    1.7574    0.4636 H   0  0  0  0  0  0  0  0  0  0  0  0
    2.4666   -0.6084    2.1323 H   0  0  0  0  0  0  0  0  0  0  0  0
    3.9697   -1.5063    3.4264 H   0  0  0  0  0  0  0  0  0  0  0  0
    5.6204   -0.9909    3.0329 H   0  0  0  0  0  0  0  0  0  0  0  0
    5.0560   -2.6238    2.5716 H   0  0  0  0  0  0  0  0  0  0  0  0
  1  2  1  0  0  0  0
  1  9  1  0  0  0  0
  1 10  1  0  0  0  0
  1 11  1  0  0  0  0
  2  3  1  0  0  0  0
  2  5  1  0  0  0  0
  2 12  1  0  0  0  0
  3  4  2  0  0  0  0
  3 13  1  0  0  0  0
  5  6  1  0  0  0  0
  5 14  1  0  0  0  0
  6  7  2  0  0  0  0
  6  8  1  0  0  0  0
  8 15  1  0  0  0  0
  8 16  1  0  0  0  0
  8 17  1  0  0  0  0
M  END
$$$$
