
 OpenBabel05092213403D

 19 20  0  0  1  0  0  0  0  0999 V2000
    1.2237    0.1287   -0.1030 C   0  0  0  0  0  0  0  0  0  0  0  0
    2.7112   -0.2018    0.0015 C   0  0  3  0  0  0  0  0  0  0  0  0
    2.9586   -1.6861   -0.2665 C   0  0  0  0  0  0  0  0  0  0  0  0
    4.7163   -1.7671   -0.6736 S   0  0  0  0  0  0  0  0  0  0  0  0
    4.5520   -0.1746   -1.5509 C   0  0  3  0  0  0  0  0  0  0  0  0
    5.5539    0.8945   -1.1214 C   0  0  0  0  0  0  0  0  0  0  0  0
    4.4185    1.5099   -0.2989 C   0  0  0  0  0  0  0  0  0  0  0  0
    3.4446    0.6258   -0.9834 N   0  0  3  0  0  0  0  0  0  0  0  0
    0.6424   -0.4870    0.5918 H   0  0  0  0  0  0  0  0  0  0  0  0
    0.8393   -0.0532   -1.1134 H   0  0  0  0  0  0  0  0  0  0  0  0
    1.0382    1.1794    0.1455 H   0  0  0  0  0  0  0  0  0  0  0  0
    3.0188    0.0114    1.0350 H   0  0  0  0  0  0  0  0  0  0  0  0
    2.3800   -2.0513   -1.1219 H   0  0  0  0  0  0  0  0  0  0  0  0
    2.7309   -2.3039    0.6067 H   0  0  0  0  0  0  0  0  0  0  0  0
    4.4809   -0.3009   -2.6366 H   0  0  0  0  0  0  0  0  0  0  0  0
    5.8917    1.5326   -1.9466 H   0  0  0  0  0  0  0  0  0  0  0  0
    6.4301    0.5730   -0.5512 H   0  0  0  0  0  0  0  0  0  0  0  0
    4.2527    2.5763   -0.4847 H   0  0  0  0  0  0  0  0  0  0  0  0
    4.5503    1.3741    0.7810 H   0  0  0  0  0  0  0  0  0  0  0  0
  1  2  1  0  0  0  0
  1  9  1  0  0  0  0
  1 10  1  0  0  0  0
  1 11  1  0  0  0  0
  2  3  1  0  0  0  0
  2  8  1  0  0  0  0
  2 12  1  0  0  0  0
  3  4  1  0  0  0  0
  3 13  1  0  0  0  0
  3 14  1  0  0  0  0
  4  5  1  0  0  0  0
  5  6  1  0  0  0  0
  5  8  1  0  0  0  0
  5 15  1  0  0  0  0
  6  7  1  0  0  0  0
  6 16  1  0  0  0  0
  6 17  1  0  0  0  0
  7  8  1  0  0  0  0
  7 18  1  0  0  0  0
  7 19  1  0  0  0  0
M  END
$$$$
