
 OpenBabel05092213403D

 17 18  0  0  1  0  0  0  0  0999 V2000
    0.8045    0.0663    0.1017 N   0  0  0  0  0  0  0  0  0  0  0  0
    2.2756   -0.0523    0.2468 C   0  0  3  0  0  0  0  0  0  0  0  0
    2.9182   -1.1900   -0.5935 C   0  0  0  0  0  0  0  0  0  0  0  0
    3.0578   -2.3861   -0.4864 O   0  0  0  0  0  0  0  0  0  0  0  0
    3.4268   -0.3045   -1.5141 N   0  0  0  0  0  0  0  0  0  0  0  0
    4.8245   -0.4129   -1.8775 C   0  0  0  0  0  0  0  0  0  0  0  0
    5.5357    0.8694   -1.4666 C   0  0  0  0  0  0  0  0  0  0  0  0
    4.5672    1.6146   -0.1147 S   0  0  0  0  0  0  0  0  0  0  0  0
    3.0067    0.8867   -0.7429 C   0  0  3  0  0  0  0  0  0  0  0  0
    0.3118   -0.6756    0.6024 H   0  0  0  0  0  0  0  0  0  0  0  0
    0.4854   -0.0197   -0.8650 H   0  0  0  0  0  0  0  0  0  0  0  0
    2.6159   -0.0209    1.2858 H   0  0  0  0  0  0  0  0  0  0  0  0
    4.8897   -0.5651   -2.9596 H   0  0  0  0  0  0  0  0  0  0  0  0
    5.2796   -1.2789   -1.3848 H   0  0  0  0  0  0  0  0  0  0  0  0
    5.5596    1.5784   -2.2995 H   0  0  0  0  0  0  0  0  0  0  0  0
    6.5645    0.6765   -1.1487 H   0  0  0  0  0  0  0  0  0  0  0  0
    2.3916    1.5652   -1.3437 H   0  0  0  0  0  0  0  0  0  0  0  0
  1  2  1  0  0  0  0
  1 10  1  0  0  0  0
  1 11  1  0  0  0  0
  2  3  1  0  0  0  0
  2  9  1  0  0  0  0
  2 12  1  0  0  0  0
  3  4  2  0  0  0  0
  3  5  1  0  0  0  0
  5  6  1  0  0  0  0
  5  9  1  0  0  0  0
  6  7  1  0  0  0  0
  6 13  1  0  0  0  0
  6 14  1  0  0  0  0
  7  8  1  0  0  0  0
  7 15  1  0  0  0  0
  7 16  1  0  0  0  0
  8  9  1  0  0  0  0
  9 17  1  0  0  0  0
M  END
$$$$
