
 OpenBabel05092213403D

 22 23  0  0  1  0  0  0  0  0999 V2000
    0.9048   -0.0076    0.0602 C   0  0  0  0  0  0  0  0  0  0  0  0
    2.3989    0.1347    0.3452 C   0  0  0  0  0  0  0  0  0  0  0  0
    2.6339    0.2723    1.8561 C   0  0  0  0  0  0  0  0  0  0  0  0
    3.2142   -1.0142   -0.2723 C   0  0  0  0  0  0  0  0  0  0  0  0
    4.6434   -0.6507   -0.4007 N   0  0  3  0  0  0  0  0  0  0  0  0
    5.0582   -0.6895   -1.8270 C   0  0  0  0  0  0  0  0  0  0  0  0
    5.5165    0.7684   -1.7269 C   0  0  0  0  0  0  0  0  0  0  0  0
    4.7502    0.8273   -0.4107 C   0  0  3  0  0  0  0  0  0  0  0  0
    3.0914    1.5944   -0.5071 S   0  0  0  0  0  0  0  0  0  0  0  0
    0.5056   -0.9056    0.5466 H   0  0  0  0  0  0  0  0  0  0  0  0
    0.6961   -0.0992   -1.0117 H   0  0  0  0  0  0  0  0  0  0  0  0
    0.3385    0.8497    0.4421 H   0  0  0  0  0  0  0  0  0  0  0  0
    2.2359   -0.6001    2.3862 H   0  0  0  0  0  0  0  0  0  0  0  0
    2.1311    1.1585    2.2595 H   0  0  0  0  0  0  0  0  0  0  0  0
    3.6962    0.3439    2.1166 H   0  0  0  0  0  0  0  0  0  0  0  0
    2.7711   -1.3144   -1.2324 H   0  0  0  0  0  0  0  0  0  0  0  0
    3.1438   -1.9063    0.3624 H   0  0  0  0  0  0  0  0  0  0  0  0
    4.2715   -0.8363   -2.5768 H   0  0  0  0  0  0  0  0  0  0  0  0
    5.8609   -1.4031   -2.0352 H   0  0  0  0  0  0  0  0  0  0  0  0
    5.1940    1.4285   -2.5367 H   0  0  0  0  0  0  0  0  0  0  0  0
    6.6015    0.8769   -1.6024 H   0  0  0  0  0  0  0  0  0  0  0  0
    5.3408    1.2231    0.4221 H   0  0  0  0  0  0  0  0  0  0  0  0
  1  2  1  0  0  0  0
  1 10  1  0  0  0  0
  1 11  1  0  0  0  0
  1 12  1  0  0  0  0
  2  3  1  0  0  0  0
  2  4  1  0  0  0  0
  2  9  1  0  0  0  0
  3 13  1  0  0  0  0
  3 14  1  0  0  0  0
  3 15  1  0  0  0  0
  4  5  1  0  0  0  0
  4 16  1  0  0  0  0
  4 17  1  0  0  0  0
  5  6  1  0  0  0  0
  5  8  1  0  0  0  0
  6  7  1  0  0  0  0
  6 18  1  0  0  0  0
  6 19  1  0  0  0  0
  7  8  1  0  0  0  0
  7 20  1  0  0  0  0
  7 21  1  0  0  0  0
  8  9  1  0  0  0  0
  8 22  1  0  0  0  0
M  END
$$$$
