
 OpenBabel05092213403D

 22 23  0  0  1  0  0  0  0  0999 V2000
    0.6201   -0.1049   -0.2025 C   0  0  0  0  0  0  0  0  0  0  0  0
    2.1072   -0.0374    0.1016 C   0  0  3  0  0  0  0  0  0  0  0  0
    2.9405   -1.6214   -0.2549 S   0  0  0  0  0  0  0  0  0  0  0  0
    4.5391   -0.7496   -0.4498 C   0  0  3  0  0  0  0  0  0  0  0  0
    5.0088   -0.6320   -1.9122 C   0  0  0  0  0  0  0  0  0  0  0  0
    5.2049    0.8611   -1.5989 C   0  0  0  0  0  0  0  0  0  0  0  0
    4.3212    0.7221   -0.4188 N   0  0  3  0  0  0  0  0  0  0  0  0
    2.8981    0.9574   -0.7639 C   0  0  3  0  0  0  0  0  0  0  0  0
    2.5304    2.4092   -0.4790 C   0  0  0  0  0  0  0  0  0  0  0  0
    0.1397   -0.9203    0.3532 H   0  0  0  0  0  0  0  0  0  0  0  0
    0.4226   -0.2502   -1.2681 H   0  0  0  0  0  0  0  0  0  0  0  0
    0.1260    0.8233    0.1060 H   0  0  0  0  0  0  0  0  0  0  0  0
    2.2473    0.1780    1.1684 H   0  0  0  0  0  0  0  0  0  0  0  0
    5.3178   -1.0868    0.2429 H   0  0  0  0  0  0  0  0  0  0  0  0
    4.2610   -0.8237   -2.6898 H   0  0  0  0  0  0  0  0  0  0  0  0
    5.9225   -1.1794   -2.1621 H   0  0  0  0  0  0  0  0  0  0  0  0
    4.8840    1.5649   -2.3733 H   0  0  0  0  0  0  0  0  0  0  0  0
    6.2357    1.1153   -1.3206 H   0  0  0  0  0  0  0  0  0  0  0  0
    2.6902    0.7660   -1.8271 H   0  0  0  0  0  0  0  0  0  0  0  0
    2.6453    2.6561    0.5812 H   0  0  0  0  0  0  0  0  0  0  0  0
    1.4915    2.6076   -0.7635 H   0  0  0  0  0  0  0  0  0  0  0  0
    3.1615    3.0937   -1.0576 H   0  0  0  0  0  0  0  0  0  0  0  0
  1  2  1  0  0  0  0
  1 10  1  0  0  0  0
  1 11  1  0  0  0  0
  1 12  1  0  0  0  0
  2  3  1  0  0  0  0
  2  8  1  0  0  0  0
  2 13  1  0  0  0  0
  3  4  1  0  0  0  0
  4  5  1  0  0  0  0
  4  7  1  0  0  0  0
  4 14  1  0  0  0  0
  5  6  1  0  0  0  0
  5 15  1  0  0  0  0
  5 16  1  0  0  0  0
  6  7  1  0  0  0  0
  6 17  1  0  0  0  0
  6 18  1  0  0  0  0
  7  8  1  0  0  0  0
  8  9  1  0  0  0  0
  8 19  1  0  0  0  0
  9 20  1  0  0  0  0
  9 21  1  0  0  0  0
  9 22  1  0  0  0  0
M  END
$$$$
