
 OpenBabel05092213403D

 25 26  0  0  1  0  0  0  0  0999 V2000
    1.3459   -0.4230   -0.2308 C   0  0  0  0  0  0  0  0  0  0  0  0
    2.7715    0.1219   -0.3208 C   0  0  3  0  0  0  0  0  0  0  0  0
    3.6217   -0.8690   -1.0296 N   0  0  3  0  0  0  0  0  0  0  0  0
    4.5460   -1.5387   -0.0834 C   0  0  0  0  0  0  0  0  0  0  0  0
    5.7416   -1.0411   -0.8997 C   0  0  0  0  0  0  0  0  0  0  0  0
    4.7622   -0.1402   -1.6382 C   0  0  3  0  0  0  0  0  0  0  0  0
    4.7203    1.6222   -1.1424 S   0  0  0  0  0  0  0  0  0  0  0  0
    2.8891    1.4912   -1.0356 C   0  0  0  0  0  0  0  0  0  0  0  0
    2.3215    1.5299   -2.4655 C   0  0  0  0  0  0  0  0  0  0  0  0
    2.2855    2.6404   -0.2268 C   0  0  0  0  0  0  0  0  0  0  0  0
    1.3321   -1.3721    0.3175 H   0  0  0  0  0  0  0  0  0  0  0  0
    0.9081   -0.5995   -1.2170 H   0  0  0  0  0  0  0  0  0  0  0  0
    0.6967    0.2715    0.3136 H   0  0  0  0  0  0  0  0  0  0  0  0
    3.1025    0.2612    0.7216 H   0  0  0  0  0  0  0  0  0  0  0  0
    4.4373   -2.6301   -0.0605 H   0  0  0  0  0  0  0  0  0  0  0  0
    4.5548   -1.1829    0.9545 H   0  0  0  0  0  0  0  0  0  0  0  0
    6.1726   -1.8160   -1.5479 H   0  0  0  0  0  0  0  0  0  0  0  0
    6.5516   -0.5704   -0.3382 H   0  0  0  0  0  0  0  0  0  0  0  0
    4.8163   -0.2515   -2.7261 H   0  0  0  0  0  0  0  0  0  0  0  0
    2.6734    0.7052   -3.0942 H   0  0  0  0  0  0  0  0  0  0  0  0
    2.5934    2.4646   -2.9715 H   0  0  0  0  0  0  0  0  0  0  0  0
    1.2280    1.4743   -2.4559 H   0  0  0  0  0  0  0  0  0  0  0  0
    2.6299    2.6452    0.8123 H   0  0  0  0  0  0  0  0  0  0  0  0
    1.1914    2.5622   -0.2061 H   0  0  0  0  0  0  0  0  0  0  0  0
    2.5242    3.6137   -0.6710 H   0  0  0  0  0  0  0  0  0  0  0  0
  1  2  1  0  0  0  0
  1 11  1  0  0  0  0
  1 12  1  0  0  0  0
  1 13  1  0  0  0  0
  2  3  1  0  0  0  0
  2  8  1  0  0  0  0
  2 14  1  0  0  0  0
  3  4  1  0  0  0  0
  3  6  1  0  0  0  0
  4  5  1  0  0  0  0
  4 15  1  0  0  0  0
  4 16  1  0  0  0  0
  5  6  1  0  0  0  0
  5 17  1  0  0  0  0
  5 18  1  0  0  0  0
  6  7  1  0  0  0  0
  6 19  1  0  0  0  0
  7  8  1  0  0  0  0
  8  9  1  0  0  0  0
  8 10  1  0  0  0  0
  9 20  1  0  0  0  0
  9 21  1  0  0  0  0
  9 22  1  0  0  0  0
 10 23  1  0  0  0  0
 10 24  1  0  0  0  0
 10 25  1  0  0  0  0
M  END
$$$$
