
 OpenBabel05092213403D

 22 23  0  0  1  0  0  0  0  0999 V2000
    1.0150    0.0119    0.1512 N   0  0  0  0  0  0  0  0  0  0  0  0
    2.4545   -0.1998    0.3712 C   0  0  3  0  0  0  0  0  0  0  0  0
    2.9592   -1.3977   -0.5660 C   0  0  0  0  0  0  0  0  0  0  0  0
    4.2106   -0.6169   -0.6081 N   0  0  3  0  0  0  0  0  0  0  0  0
    5.0161   -0.3713   -1.7914 C   0  0  3  0  0  0  0  0  0  0  0  0
    6.0743   -1.4520   -2.0276 C   0  0  0  0  0  0  0  0  0  0  0  0
    5.4582   -2.7123   -2.2759 O   0  0  0  0  0  0  0  0  0  0  0  0
    5.6807    0.9907   -1.4146 C   0  0  0  0  0  0  0  0  0  0  0  0
    4.4936    1.9022   -0.2787 S   0  0  0  0  0  0  0  0  0  0  0  0
    3.3096    0.6043   -0.6170 C   0  0  3  0  0  0  0  0  0  0  0  0
    0.4261   -0.6283    0.6827 H   0  0  0  0  0  0  0  0  0  0  0  0
    0.7037   -0.0521   -0.8172 H   0  0  0  0  0  0  0  0  0  0  0  0
    2.7807   -0.2200    1.4165 H   0  0  0  0  0  0  0  0  0  0  0  0
    2.4537   -1.5306   -1.5311 H   0  0  0  0  0  0  0  0  0  0  0  0
    3.0381   -2.3664   -0.0647 H   0  0  0  0  0  0  0  0  0  0  0  0
    4.3990   -0.2714   -2.6953 H   0  0  0  0  0  0  0  0  0  0  0  0
    6.7508   -1.5615   -1.1723 H   0  0  0  0  0  0  0  0  0  0  0  0
    6.6810   -1.1980   -2.9032 H   0  0  0  0  0  0  0  0  0  0  0  0
    4.9786   -2.9351   -1.4567 H   0  0  0  0  0  0  0  0  0  0  0  0
    5.8635    1.5980   -2.3059 H   0  0  0  0  0  0  0  0  0  0  0  0
    6.6182    0.8583   -0.8648 H   0  0  0  0  0  0  0  0  0  0  0  0
    2.7856    0.7951   -1.5697 H   0  0  0  0  0  0  0  0  0  0  0  0
  1  2  1  0  0  0  0
  1 11  1  0  0  0  0
  1 12  1  0  0  0  0
  2  3  1  0  0  0  0
  2 10  1  0  0  0  0
  2 13  1  0  0  0  0
  3  4  1  0  0  0  0
  3 14  1  0  0  0  0
  3 15  1  0  0  0  0
  4  5  1  0  0  0  0
  4 10  1  0  0  0  0
  5  6  1  0  0  0  0
  5  8  1  0  0  0  0
  5 16  1  0  0  0  0
  6  7  1  0  0  0  0
  6 17  1  0  0  0  0
  6 18  1  0  0  0  0
  7 19  1  0  0  0  0
  8  9  1  0  0  0  0
  8 20  1  0  0  0  0
  8 21  1  0  0  0  0
  9 10  1  0  0  0  0
 10 22  1  0  0  0  0
M  END
$$$$
