
 OpenBabel05092213403D

 17 18  0  0  1  0  0  0  0  0999 V2000
    2.0224   -0.8574    0.3956 O   0  0  0  0  0  0  0  0  0  0  0  0
    2.1162    0.2602   -0.1081 C   0  0  0  0  0  0  0  0  0  0  0  0
    2.9789    0.5596   -1.3138 C   0  0  3  0  0  0  0  0  0  0  0  0
    2.9924   -0.5773   -2.3204 C   0  0  0  0  0  0  0  0  0  0  0  0
    3.4257    0.2250   -3.9098 S   0  0  0  0  0  0  0  0  0  0  0  0
    2.4319    1.6956   -3.4720 C   0  0  3  0  0  0  0  0  0  0  0  0
    3.1498    3.0461   -3.4894 C   0  0  0  0  0  0  0  0  0  0  0  0
    3.2218    2.8841   -1.9666 C   0  0  0  0  0  0  0  0  0  0  0  0
    3.8258    3.3925   -1.0527 O   0  0  0  0  0  0  0  0  0  0  0  0
    2.4635    1.7431   -1.9959 N   0  0  0  0  0  0  0  0  0  0  0  0
    1.6735    1.1359    0.3978 H   0  0  0  0  0  0  0  0  0  0  0  0
    3.9917    0.7677   -0.9454 H   0  0  0  0  0  0  0  0  0  0  0  0
    2.0043   -1.0373   -2.4309 H   0  0  0  0  0  0  0  0  0  0  0  0
    3.7126   -1.3572   -2.0581 H   0  0  0  0  0  0  0  0  0  0  0  0
    1.4113    1.6953   -3.8652 H   0  0  0  0  0  0  0  0  0  0  0  0
    2.5309    3.8923   -3.8051 H   0  0  0  0  0  0  0  0  0  0  0  0
    4.1219    3.0921   -3.9850 H   0  0  0  0  0  0  0  0  0  0  0  0
  1  2  2  0  0  0  0
  2  3  1  0  0  0  0
  2 11  1  0  0  0  0
  3  4  1  0  0  0  0
  3 10  1  0  0  0  0
  3 12  1  0  0  0  0
  4  5  1  0  0  0  0
  4 13  1  0  0  0  0
  4 14  1  0  0  0  0
  5  6  1  0  0  0  0
  6  7  1  0  0  0  0
  6 10  1  0  0  0  0
  6 15  1  0  0  0  0
  7  8  1  0  0  0  0
  7 16  1  0  0  0  0
  7 17  1  0  0  0  0
  8  9  2  0  0  0  0
  8 10  1  0  0  0  0
M  END
$$$$
