21
Coordinates from ORCA-job 68076
  C   -0.16824918572851      1.51216002951423     -0.00957779966956
  C   0.07850781304223      0.03350433484066     -0.10722211723906
  C   1.30911757714833     -0.53150647807878     -0.85379899192642
  C   1.14268909471272     -1.76253308506385      0.06749516669642
  C   2.30338711248994     -2.65803972422408      0.39485607748345
  C   0.55044539081463     -0.78942548392667      1.11737217931344
  O   0.10520840700058     -2.56706936927609     -0.48883361203364
  C   -1.14347993349383     -1.94459587424024     -0.43500454732773
  O   -1.07646901440605     -0.57216487883283     -0.68390426044390
  H   0.72321224843204      2.02956365865114      0.37322406488929
  H   -0.41418126188267      1.91728305668664     -1.00233447665181
  H   -1.01556982222030      1.71412913227778      0.66256031336543
  H   1.19266174668242     -0.70549038825246     -1.93315205079610
  H   2.22866077435828      0.03432128776088     -0.63864267668644
  H   3.15235645027594     -2.07051164865596      0.77286427713294
  H   2.01181402965799     -3.39730588617145      1.15572134495020
  H   2.62222888425005     -3.20200270328850     -0.50670913058523
  H   1.35500227586394     -0.26196718138221      1.64856102304702
  H   -0.18622930503823     -1.15388291021874      1.84855102198252
  H   -1.77910201637591     -2.39679385838176     -1.21137773458189
  H   -1.61391311568358     -2.12652871983769      0.55460151918110
