18
Coordinates from ORCA-job 85759
  O   -0.04649225409776      1.43129039786891      0.06693173196356
  C   -0.00979289760012      0.03129419710068      0.01775913381509
  C   0.68078395122733     -0.60853171777545      1.23511602975361
  C   0.02087687239702     -1.99129231218566      1.38778919814989
  C   0.09152278160697     -2.52681739215511      2.74561925954261
  N   0.14567280854436     -2.94489479521601      3.82374886328355
  C   -1.40013849700359     -1.79341527081840      0.86684523895234
  C   -2.13651790753319     -0.57385926286009      1.33155036800534
  C   -1.40632602435652     -0.54918917740638      0.02249524240972
  H   0.84808242566425      1.76367643052546     -0.05823370865102
  H   0.48945028770110     -0.31618717159058     -0.91041148203625
  H   1.77373565479967     -0.67542683056580      1.13418639442077
  H   0.47215967103780      0.02023203587608      2.11346207534454
  H   0.52969936101799     -2.71726826151981      0.73001465565658
  H   -1.96540756382855     -2.68482027518204      0.58444449367587
  H   -3.22686977796145     -0.61445725137820      1.28791460854930
  H   -1.74825399810089      0.00383514110304      2.17478111855682
  H   -1.98294473351442     -0.49517039392063     -0.90440626139231
