52
Coordinates from ORCA-job pemetrexed
  O   2.98832070640748      0.77134983981063      2.67875841315539
  C   3.33092912918023      0.62807046724847      1.38392863701833
  O   4.22250143512150     -0.11802641370031      1.08922123483988
  C   2.61564598947010      1.45477761276143      0.33236849420983
  C   1.43912328296774      2.37601201488133      0.66020515767772
  C   0.06118509466291      1.71512828031151      0.82135732724114
  H   0.01517152838055      0.84079373783289      0.15250925546002
  C   -0.18116594065065      1.22005358054673      2.23506151785153
  O   0.53487673648668      1.46153126929614      3.18633624100777
  O   -1.30228029828710      0.53122021900099      2.38510968499034
  N   -1.01966634889077      2.61358207525418      0.46607144154536
  C   -1.80839739557135      2.54523426485370     -0.66162539645025
  O   -2.35978453599503      3.53454409040922     -1.09897461034015
  C   -1.93959861769404      1.19835752377943     -1.30180626145839
  C   -2.36636720494402      0.07701122961531     -0.58492452117297
  C   -2.43539609740888     -1.16584830941409     -1.20564241006394
  C   -2.04997530547076     -1.32222947422878     -2.54013297253210
  C   -1.68184191976393     -0.18204213500595     -3.26342253027987
  C   -1.64356066896381      1.06870883511340     -2.66056500056849
  C   -1.92027389617081     -2.68531535099941     -3.15750016408249
  C   -0.52671448782420     -3.31005710789941     -2.92978845874858
  C   -0.26267526764144     -3.77644960126721     -1.53136038196747
  C   -0.47879146995280     -5.04597121186066     -1.05072839239466
  N   -0.11768322004656     -5.09958875333527      0.28959733381387
  C   0.32615855674626     -3.87612669242743      0.65433707900236
  C   0.25336279978671     -3.01463103072566     -0.42591062478562
  C   0.71073204743836     -1.64218723061763     -0.24774343541102
  O   0.75105639401730     -0.81365122226943     -1.14710018070820
  N   1.10495182730331     -1.30223662108747      1.04307185287647
  C   1.18451514079306     -2.16516240258070      2.01020826420044
  N   0.80290732671567     -3.48335316552959      1.87949290409804
  N   1.62162986362387     -1.77617437507643      3.23585788961740
  H   2.17703838513611      1.30923494956619      2.81248722114303
  H   3.41779528002768      2.05788456758291     -0.12323118687562
  H   2.30656757642090      0.72970049211255     -0.43715573480997
  H   1.33475627770455      3.05611906417593     -0.19786578281329
  H   1.65165018108319      3.02136428304957      1.53088841821343
  H   -1.35290510799332      0.28418485447303      3.32171895208097
  H   -0.97146568583683      3.55578012006348      0.84396931566724
  H   -2.61884168863864      0.17494538389880      0.47131596815739
  H   -2.75517938745671     -2.04067674569160     -0.63296971425962
  H   -1.39648352015226     -0.28254736155724     -4.31461449606058
  H   -1.35108229204164      1.95368625063731     -3.23019846479057
  H   -2.68964344048963     -3.36608886682654     -2.75813490768392
  H   -2.08866855574226     -2.61260633433998     -4.24402399605942
  H   -0.41915499521256     -4.17066590829178     -3.60946863769047
  H   0.24029450403300     -2.57146098205879     -3.20774756828211
  H   -0.85247181642331     -5.93334810375794     -1.55645310433846
  H   -0.15584614539898     -5.92538443610407      0.86920650900013
  H   0.87105361349709     -4.12719230947238      2.65571023315243
  H   2.14705576386020     -0.89683793749294      3.22935006472516
  H   1.97212586979784     -2.47915492265629      3.87250952388257
