6
none
C          1.22190        3.15220        0.31570
O          3.40310        3.20040        0.46660
N          2.20060        3.81610        0.83130
H          0.18500        3.47910        0.48800
H          1.36820        2.25160       -0.30440
H          4.06800        3.76890        0.89870
