9
none
C          1.42250        1.74180       -0.03900
N          2.57750        1.28580       -0.33690
C          3.64390        2.14350       -0.24550
O          4.81690        1.78800       -0.51570
O          3.47250        3.44450        0.15100
N          2.19720        3.95860        0.48170
C          1.22490        3.14130        0.38850
H          0.19520        3.42980        0.61980
H          0.50540        1.14190       -0.07840
