none
     RDKit          3D

  6  5  0  0  0  0  0  0  0  0999 V2000
    1.2353    3.0789    0.3694 C   0  0  0  0  0  0  0  0  0  0  0  0
    1.4083    1.8120   -0.0174 C   0  0  0  0  0  0  0  0  0  0  0  0
    0.2496    3.4581    0.6200 H   0  0  0  0  0  0  0  0  0  0  0  0
    2.0760    3.7616    0.4430 H   0  0  0  0  0  0  0  0  0  0  0  0
    0.5676    1.1293   -0.0910 H   0  0  0  0  0  0  0  0  0  0  0  0
    2.3940    1.4328   -0.2680 H   0  0  0  0  0  0  0  0  0  0  0  0
  1  2  2  3
  1  3  1  0
  1  4  1  0
  2  5  1  0
  2  6  1  0
M  END
