10
none
O         -0.89660        1.20780        0.14100
C          0.23540        0.82210       -0.13030
C          1.40720        1.73940       -0.03720
N          2.57510        1.26030       -0.34390
N          2.21680        3.97280        0.48330
C          1.23270        3.15360        0.39050
H          0.48190       -0.18960       -0.45370
H          0.19950        3.44660        0.62390
H          3.33560        1.93540       -0.26040
H          3.12700        3.58200        0.24000
