none
     RDKit          3D

  9  8  0  0  0  0  0  0  0  0999 V2000
   -0.8915    1.2101    0.1414 O   0  0  0  0  0  0  0  0  0  0  0  0
    0.2350    0.8317   -0.1280 C   0  0  0  0  0  0  0  0  0  0  0  0
    1.4182    1.7571   -0.0350 C   0  0  0  0  0  0  0  0  0  0  0  0
    2.5763    1.2793   -0.3379 N   0  0  0  0  0  0  0  0  0  0  0  0
    3.6536    2.1269   -0.2515 C   0  0  0  0  0  0  0  0  0  0  0  0
    4.8068    1.8030   -0.5101 O   0  0  0  0  0  0  0  0  0  0  0  0
    0.4820   -0.1877   -0.4532 H   0  0  0  0  0  0  0  0  0  0  0  0
    1.1966    2.7897    0.2922 H   0  0  0  0  0  0  0  0  0  0  0  0
    3.4544    3.1629    0.0718 H   0  0  0  0  0  0  0  0  0  0  0  0
  1  2  2  0
  2  3  1  0
  3  4  2  0
  4  5  1  0
  5  6  2  0
  2  7  1  0
  3  8  1  0
  5  9  1  0
M  END
