none
     RDKit          3D

  8  7  0  0  0  0  0  0  0  0999 V2000
    1.4142    1.7564   -0.0318 C   0  0  0  0  0  0  0  0  0  0  0  0
    2.5707    1.2838   -0.3395 N   0  0  0  0  0  0  0  0  0  0  0  0
    3.6677    2.1321   -0.2508 C   0  0  0  0  0  0  0  0  0  0  0  0
    4.8057    1.8038   -0.5086 O   0  0  0  0  0  0  0  0  0  0  0  0
    3.4535    3.4453    0.1525 O   0  0  0  0  0  0  0  0  0  0  0  0
    0.5404    1.0927   -0.1230 H   0  0  0  0  0  0  0  0  0  0  0  0
    1.1880    2.7664    0.3496 H   0  0  0  0  0  0  0  0  0  0  0  0
    2.6622    3.8024   -0.2782 H   0  0  0  0  0  0  0  0  0  0  0  0
  1  2  2  3
  2  3  1  0
  3  4  2  0
  3  5  1  0
  1  6  1  0
  1  7  1  0
  5  8  1  0
M  END
