none
     RDKit          3D

  7  6  0  0  0  0  0  0  0  0999 V2000
   -0.8751    1.2415    0.1472 O   0  0  0  0  0  0  0  0  0  0  0  0
    0.2337    0.8151   -0.1323 C   0  0  0  0  0  0  0  0  0  0  0  0
    1.4164    1.7281   -0.0432 C   0  0  0  0  0  0  0  0  0  0  0  0
    2.5966    1.2966   -0.3344 N   0  0  0  0  0  0  0  0  0  0  0  0
    0.4559   -0.2136   -0.4550 H   0  0  0  0  0  0  0  0  0  0  0  0
    1.2034    2.7594    0.2796 H   0  0  0  0  0  0  0  0  0  0  0  0
    3.2787    2.0567   -0.2169 H   0  0  0  0  0  0  0  0  0  0  0  0
  1  2  2  0
  2  3  1  0
  3  4  2  0
  2  5  1  0
  3  6  1  0
  4  7  1  0
M  END
