
 OpenBabel05092213403D

 18 19  0  0  1  0  0  0  0  0999 V2000
    1.2572    0.0629   -0.2334 C   0  0  0  0  0  0  0  0  0  0  0  0
    2.7293   -0.2849   -0.0694 C   0  0  3  0  0  0  0  0  0  0  0  0
    3.0113   -1.7603   -0.3505 C   0  0  0  0  0  0  0  0  0  0  0  0
    4.7857   -1.8267   -0.7883 S   0  0  0  0  0  0  0  0  0  0  0  0
    4.6489   -0.2355   -1.6766 C   0  0  3  0  0  0  0  0  0  0  0  0
    5.6031    0.8778   -1.2464 C   0  0  0  0  0  0  0  0  0  0  0  0
    4.4054    1.4335   -0.4677 C   0  0  0  0  0  0  0  0  0  0  0  0
    4.2406    2.2490    0.4084 O   0  0  0  0  0  0  0  0  0  0  0  0
    3.5595    0.4871   -0.9885 N   0  0  0  0  0  0  0  0  0  0  0  0
    0.6345   -0.5585    0.4181 H   0  0  0  0  0  0  0  0  0  0  0  0
    0.9249   -0.0813   -1.2674 H   0  0  0  0  0  0  0  0  0  0  0  0
    1.0791    1.1123    0.0252 H   0  0  0  0  0  0  0  0  0  0  0  0
    3.0309   -0.0552    0.9616 H   0  0  0  0  0  0  0  0  0  0  0  0
    2.4435   -2.1205   -1.2153 H   0  0  0  0  0  0  0  0  0  0  0  0
    2.7863   -2.3975    0.5090 H   0  0  0  0  0  0  0  0  0  0  0  0
    4.4756   -0.3212   -2.7536 H   0  0  0  0  0  0  0  0  0  0  0  0
    5.9369    1.5373   -2.0524 H   0  0  0  0  0  0  0  0  0  0  0  0
    6.4524    0.5969   -0.6198 H   0  0  0  0  0  0  0  0  0  0  0  0
  1  2  1  0  0  0  0
  1 10  1  0  0  0  0
  1 11  1  0  0  0  0
  1 12  1  0  0  0  0
  2  3  1  0  0  0  0
  2  9  1  0  0  0  0
  2 13  1  0  0  0  0
  3  4  1  0  0  0  0
  3 14  1  0  0  0  0
  3 15  1  0  0  0  0
  4  5  1  0  0  0  0
  5  6  1  0  0  0  0
  5  9  1  0  0  0  0
  5 16  1  0  0  0  0
  6  7  1  0  0  0  0
  6 17  1  0  0  0  0
  6 18  1  0  0  0  0
  7  8  2  0  0  0  0
  7  9  1  0  0  0  0
M  END
$$$$
