
 OpenBabel05092213403D

 19 20  0  0  1  0  0  0  0  0999 V2000
    2.3135   -0.1391    0.9934 O   0  0  0  0  0  0  0  0  0  0  0  0
    2.2064    0.0468   -0.2084 C   0  0  0  0  0  0  0  0  0  0  0  0
    1.3117    0.9165   -0.7399 O   0  0  0  0  0  0  0  0  0  0  0  0
    3.0531   -0.6603   -1.2673 C   0  0  3  0  0  0  0  0  0  0  0  0
    2.9050   -2.1632   -1.0830 C   0  0  0  0  0  0  0  0  0  0  0  0
    3.4100   -2.8430   -2.6791 S   0  0  0  0  0  0  0  0  0  0  0  0
    2.5820   -1.4426   -3.5045 C   0  0  3  0  0  0  0  0  0  0  0  0
    3.4457   -0.6959   -4.5180 C   0  0  0  0  0  0  0  0  0  0  0  0
    3.7115    0.3246   -3.4088 C   0  0  0  0  0  0  0  0  0  0  0  0
    2.5749   -0.2409   -2.6281 N   0  0  3  0  0  0  0  0  0  0  0  0
    1.4055    0.8739   -1.7215 H   0  0  0  0  0  0  0  0  0  0  0  0
    4.0897   -0.3493   -1.0822 H   0  0  0  0  0  0  0  0  0  0  0  0
    1.8672   -2.4545   -0.8826 H   0  0  0  0  0  0  0  0  0  0  0  0
    3.5361   -2.5455   -0.2758 H   0  0  0  0  0  0  0  0  0  0  0  0
    1.5887   -1.7085   -3.8810 H   0  0  0  0  0  0  0  0  0  0  0  0
    2.8724   -0.2878   -5.3594 H   0  0  0  0  0  0  0  0  0  0  0  0
    4.3269   -1.2069   -4.9163 H   0  0  0  0  0  0  0  0  0  0  0  0
    3.5662    1.3681   -3.7070 H   0  0  0  0  0  0  0  0  0  0  0  0
    4.7141    0.2329   -2.9745 H   0  0  0  0  0  0  0  0  0  0  0  0
  1  2  2  0  0  0  0
  2  3  1  0  0  0  0
  2  4  1  0  0  0  0
  3 11  1  0  0  0  0
  4  5  1  0  0  0  0
  4 10  1  0  0  0  0
  4 12  1  0  0  0  0
  5  6  1  0  0  0  0
  5 13  1  0  0  0  0
  5 14  1  0  0  0  0
  6  7  1  0  0  0  0
  7  8  1  0  0  0  0
  7 10  1  0  0  0  0
  7 15  1  0  0  0  0
  8  9  1  0  0  0  0
  8 16  1  0  0  0  0
  8 17  1  0  0  0  0
  9 10  1  0  0  0  0
  9 18  1  0  0  0  0
  9 19  1  0  0  0  0
M  END
$$$$
