
 OpenBabel05092213403D

 24 25  0  0  1  0  0  0  0  0999 V2000
    0.7554    1.3459   -1.6465 C   0  0  0  0  0  0  0  0  0  0  0  0
    2.2378    1.1667   -1.9325 C   0  0  0  0  0  0  0  0  0  0  0  0
    3.0078    1.2757   -0.6925 N   0  0  0  0  0  0  0  0  0  0  0  0
    4.4446    1.0880   -0.9772 C   0  0  3  0  0  0  0  0  0  0  0  0
    4.9995    2.3326   -1.8302 C   0  0  0  0  0  0  0  0  0  0  0  0
    6.2232    2.1076   -1.0528 N   0  0  3  0  0  0  0  0  0  0  0  0
    7.0401    3.1452   -0.4818 C   0  0  0  0  0  0  0  0  0  0  0  0
    7.6980    2.3711    0.6934 C   0  0  0  0  0  0  0  0  0  0  0  0
    6.4725    1.0498    1.2490 S   0  0  0  0  0  0  0  0  0  0  0  0
    5.3042    1.7767    0.1001 C   0  0  3  0  0  0  0  0  0  0  0  0
    0.1915    1.3516   -2.5856 H   0  0  0  0  0  0  0  0  0  0  0  0
    0.5616    2.2960   -1.1356 H   0  0  0  0  0  0  0  0  0  0  0  0
    0.3688    0.5332   -1.0240 H   0  0  0  0  0  0  0  0  0  0  0  0
    2.5391    1.9491   -2.6401 H   0  0  0  0  0  0  0  0  0  0  0  0
    2.4041    0.1952   -2.4112 H   0  0  0  0  0  0  0  0  0  0  0  0
    2.6533    0.5987   -0.0125 H   0  0  0  0  0  0  0  0  0  0  0  0
    4.7531    0.0882   -1.3053 H   0  0  0  0  0  0  0  0  0  0  0  0
    4.5081    3.3022   -1.6744 H   0  0  0  0  0  0  0  0  0  0  0  0
    5.0952    2.1431   -2.9037 H   0  0  0  0  0  0  0  0  0  0  0  0
    6.4707    4.0102   -0.1190 H   0  0  0  0  0  0  0  0  0  0  0  0
    7.7963    3.5081   -1.1839 H   0  0  0  0  0  0  0  0  0  0  0  0
    7.9239    3.0396    1.5288 H   0  0  0  0  0  0  0  0  0  0  0  0
    8.6120    1.8628    0.3703 H   0  0  0  0  0  0  0  0  0  0  0  0
    4.7925    2.6400    0.5598 H   0  0  0  0  0  0  0  0  0  0  0  0
  1  2  1  0  0  0  0
  1 11  1  0  0  0  0
  1 12  1  0  0  0  0
  1 13  1  0  0  0  0
  2  3  1  0  0  0  0
  2 14  1  0  0  0  0
  2 15  1  0  0  0  0
  3  4  1  0  0  0  0
  3 16  1  0  0  0  0
  4  5  1  0  0  0  0
  4 10  1  0  0  0  0
  4 17  1  0  0  0  0
  5  6  1  0  0  0  0
  5 18  1  0  0  0  0
  5 19  1  0  0  0  0
  6  7  1  0  0  0  0
  6 10  1  0  0  0  0
  7  8  1  0  0  0  0
  7 20  1  0  0  0  0
  7 21  1  0  0  0  0
  8  9  1  0  0  0  0
  8 22  1  0  0  0  0
  8 23  1  0  0  0  0
  9 10  1  0  0  0  0
 10 24  1  0  0  0  0
M  END
$$$$
