
 OpenBabel05092213403D

 20 21  0  0  1  0  0  0  0  0999 V2000
    1.3498    0.4210    1.0267 C   0  0  0  0  0  0  0  0  0  0  0  0
    2.2820    0.0237   -0.0224 N   0  0  0  0  0  0  0  0  0  0  0  0
    2.8457   -1.3143    0.2912 C   0  0  3  0  0  0  0  0  0  0  0  0
    1.8670   -2.5238    0.2857 C   0  0  0  0  0  0  0  0  0  0  0  0
    1.1107   -3.0347    1.0813 O   0  0  0  0  0  0  0  0  0  0  0  0
    2.3406   -2.9847   -0.9198 N   0  0  0  0  0  0  0  0  0  0  0  0
    2.7545   -4.3664   -1.0388 C   0  0  0  0  0  0  0  0  0  0  0  0
    4.2204   -4.3959   -1.4489 C   0  0  0  0  0  0  0  0  0  0  0  0
    4.9714   -2.8483   -0.8434 S   0  0  0  0  0  0  0  0  0  0  0  0
    3.3862   -1.9459   -1.0161 C   0  0  3  0  0  0  0  0  0  0  0  0
    0.9895    1.4339    0.8189 H   0  0  0  0  0  0  0  0  0  0  0  0
    1.8264    0.4297    2.0121 H   0  0  0  0  0  0  0  0  0  0  0  0
    0.4730   -0.2329    1.0532 H   0  0  0  0  0  0  0  0  0  0  0  0
    3.0033    0.7408   -0.1034 H   0  0  0  0  0  0  0  0  0  0  0  0
    3.5279   -1.3180    1.1488 H   0  0  0  0  0  0  0  0  0  0  0  0
    2.1282   -4.8532   -1.7935 H   0  0  0  0  0  0  0  0  0  0  0  0
    2.6104   -4.8905   -0.0867 H   0  0  0  0  0  0  0  0  0  0  0  0
    4.3143   -4.4147   -2.5394 H   0  0  0  0  0  0  0  0  0  0  0  0
    4.7401   -5.2678   -1.0422 H   0  0  0  0  0  0  0  0  0  0  0  0
    3.2883   -1.3631   -1.9382 H   0  0  0  0  0  0  0  0  0  0  0  0
  1  2  1  0  0  0  0
  1 11  1  0  0  0  0
  1 12  1  0  0  0  0
  1 13  1  0  0  0  0
  2  3  1  0  0  0  0
  2 14  1  0  0  0  0
  3  4  1  0  0  0  0
  3 10  1  0  0  0  0
  3 15  1  0  0  0  0
  4  5  2  0  0  0  0
  4  6  1  0  0  0  0
  6  7  1  0  0  0  0
  6 10  1  0  0  0  0
  7  8  1  0  0  0  0
  7 16  1  0  0  0  0
  7 17  1  0  0  0  0
  8  9  1  0  0  0  0
  8 18  1  0  0  0  0
  8 19  1  0  0  0  0
  9 10  1  0  0  0  0
 10 20  1  0  0  0  0
M  END
$$$$
