14

C	1.01532	0.038857	0.069807
C	2.515169	-0.062913	0.008183
C	3.198214	-0.751705	-1.144951
O	2.377433	-1.281552	-2.126847
C	3.317261	0.73653	-0.978934
O	4.522872	1.333607	-0.642323
H	0.697817	0.920681	0.647869
H	0.57874	-0.854948	0.542257
H	0.591321	0.111463	-0.940928
H	3.010507	-0.2234	0.975922
H	4.0993	-1.335771	-0.902376
H	2.817563	-1.161489	-2.975109
H	2.741413	1.337477	-1.695101
H	4.678329	1.200862	0.29678
