11

C	0.964711	0.049216	-0.005268
C	2.451154	-0.02874	-0.001359
N	3.179143	1.061217	0.00166
O	4.480698	0.657613	0.003341
C	4.536792	-0.673367	0.00261
C	3.280321	-1.192123	-0.000122
H	0.645544	1.099209	0.001532
H	0.542202	-0.454687	0.877294
H	0.54778	-0.440993	-0.898219
H	5.532686	-1.112866	0.004279
H	2.98135	-2.23689	-0.001429
