17

C	0.990368	0.003104	-0.032652
C	2.527449	-0.030331	0.022987
C	2.993542	-0.739253	1.289203
N	3.116606	-0.714061	-1.129252
C	3.025562	1.393988	-0.025741
N	3.524842	1.963318	0.991204
O	3.883002	3.262348	0.748253
H	0.639805	0.52698	-0.937207
H	0.5616	0.514417	0.843189
H	0.59134	-1.024107	-0.062089
H	2.629481	-0.224511	2.187929
H	4.090911	-0.766474	1.325191
H	2.613055	-1.772963	1.299513
H	2.76744	-0.305281	-1.995913
H	2.808285	-1.685734	-1.136431
H	2.91984	1.945807	-0.975788
H	4.254041	3.549663	1.588725
