19

C	3.123801	-1.07929	0.331366
C	2.165766	0.025803	0.756209
C	2.596507	1.438469	0.369898
C	1.505161	2.459999	0.64789
N	3.801804	1.784265	1.103817
N	4.372039	2.953822	0.836008
C	5.581994	3.176807	1.171553
H	2.718516	-2.071339	0.581799
H	4.105768	-1.008404	0.825951
H	3.300923	-1.05492	-0.755714
H	2.006448	-0.001516	1.848662
H	1.18053	-0.15658	0.297859
H	2.806796	1.441739	-0.721453
H	1.210085	2.426062	1.708508
H	0.61909	2.260454	0.026829
H	1.869469	3.472437	0.426433
H	4.426522	1.008369	1.328063
H	6.003615	4.163997	0.9654
H	6.219895	2.422164	1.667591
