11

C	0.975391	-0.030832	0.089888
C	2.505518	0.005486	-0.015403
C	2.980102	-0.77794	-1.235548
O	3.707882	-0.363441	-2.087395
C	3.031293	1.367045	-0.000874
N	3.417261	2.45688	0.018756
H	0.639105	0.439274	1.023782
H	0.619071	-1.071679	0.08291
H	0.513081	0.503212	-0.752697
H	2.930837	-0.526895	0.857244
H	2.567158	-1.820041	-1.264312
