17

C	2.236067	-0.92966	-1.586856
C	2.337266	-0.62056	-0.102565
C	3.24967	0.56418	0.206202
N	4.610669	0.300478	-0.170985
C	5.191858	1.020265	-1.045171
N	6.445619	0.676397	-1.460293
O	7.038626	-0.312425	-0.703788
H	1.571486	-1.786255	-1.776143
H	3.224223	-1.172954	-2.00674
H	1.8371	-0.068484	-2.148846
H	2.719893	-1.501947	0.439245
H	1.337314	-0.40718	0.312612
H	3.218646	0.760883	1.292286
H	2.850288	1.473113	-0.293542
H	4.759627	1.901547	-1.55226
H	7.097114	1.434604	-1.643792
H	6.305764	-0.530213	-0.080393
