13

C	3.182938	-1.126456	0.41147
N	2.567304	0.044542	-0.154089
C	3.138902	1.272371	-0.088265
N	2.572553	2.421291	-0.30823
C	3.604746	3.326077	-0.162964
C	4.750276	2.673566	0.147847
O	4.448742	1.333182	0.200279
H	2.66132	-2.021401	0.046458
H	3.172829	-1.141423	1.51805
H	4.229999	-1.192911	0.08401
H	1.559233	0.078174	-0.226263
H	3.453256	4.397089	-0.290543
H	5.776442	2.955509	0.358649
