15

N	3.507894	-1.068291	-2.32222
C	3.534233	-0.62207	-1.255419
C	3.547122	-0.041191	0.089577
N	4.257184	1.202954	0.124512
C	3.68932	2.39225	-0.511354
C	4.287308	3.233282	0.628226
C	4.393638	1.906075	1.397603
H	4.041243	-0.761272	0.763594
H	2.488143	0.042126	0.431521
H	2.578046	2.401584	-0.497363
H	4.027984	2.581837	-1.542433
H	5.270897	3.648501	0.371109
H	3.657098	4.020793	1.061675
H	5.319865	1.693459	1.957858
H	3.527234	1.750714	2.076203
