18

C	0.574731	0.602518	0.379361
C	1.861206	0.188847	-0.322876
C	3.07601	1.012352	0.063852
C	3.668609	0.767333	1.434577
O	2.787661	1.016701	2.497948
C	4.012592	1.470387	-0.988164
N	3.03977	2.393854	-0.423412
H	-0.287403	0.043668	-0.014693
H	0.387134	1.674522	0.208355
H	0.633395	0.427335	1.462327
H	1.722977	0.284523	-1.412093
H	2.081904	-0.87545	-0.128643
H	4.597306	1.369903	1.528698
H	3.966204	-0.29014	1.521847
H	2.409144	1.894037	2.373932
H	3.837309	1.176591	-2.028893
H	5.071743	1.586989	-0.725907
H	3.500689	3.026968	0.231127
