13

C	3.048951	-1.35727	0.065375
C	2.330131	-0.029213	0.050146
O	1.119041	0.03725	0.053422
C	3.124376	1.222333	0.029838
C	4.471488	1.279495	0.02317
C	5.218453	2.485024	0.002812
C	5.876606	3.505439	-0.014664
H	3.695918	-1.445912	0.952014
H	3.688731	-1.469192	-0.823896
H	2.301374	-2.159356	0.078934
H	2.525122	2.137105	0.019724
H	5.057173	0.35267	0.033337
H	6.454164	4.411816	-0.030374
