16

N	0.983823	0.007037	-0.121699
C	2.140144	0.00371	-0.061261
C	3.594596	0.002595	0.025401
C	4.179292	1.132442	0.888347
C	5.609134	0.653845	1.107364
C	5.451666	-0.84303	1.401263
C	4.190567	-1.294713	0.631463
H	3.975494	0.127207	-1.003357
H	3.636861	1.182624	1.847052
H	4.100101	2.118009	0.406829
H	6.190184	0.80236	0.181271
H	6.130498	1.200187	1.907143
H	6.344182	-1.421543	1.120931
H	5.304724	-0.996199	2.481668
H	4.4102	-2.0253	-0.159991
H	3.461074	-1.7691	1.304456
