18

C	4.059903	-0.922539	-0.910325
C	2.872629	-0.249267	-0.24228
O	2.425351	-0.985809	0.880708
C	3.091241	1.187029	0.146559
C	4.164916	1.939736	-0.110127
C	4.327286	3.366909	0.310643
N	5.59494	3.554481	0.992327
H	4.327773	-0.434271	-1.858758
H	3.812852	-1.973209	-1.116546
H	4.944759	-0.898021	-0.253435
H	2.018571	-0.276617	-0.944337
H	3.108095	-0.909284	1.557303
H	2.257077	1.618184	0.716304
H	5.018931	1.525447	-0.659084
H	3.429585	3.681606	0.88555
H	4.342595	3.99516	-0.598786
H	5.586328	3.075019	1.890285
H	5.761997	4.539026	1.185528
