17

C	1.976685	-0.486015	0.26014
C	3.366196	-0.446335	-0.358733
N	3.725058	0.890158	-0.748529
C	4.763768	1.410176	-0.243864
N	5.173646	2.679646	-0.556068
C	6.289395	3.303628	-0.042875
C	6.699196	4.546794	-0.327701
H	1.676551	-1.518901	0.494196
H	1.237249	-0.054995	-0.431293
H	1.947322	0.101331	1.190654
H	3.37144	-1.084866	-1.260818
H	4.101465	-0.895155	0.345218
H	5.427393	0.894343	0.480683
H	4.58405	3.177586	-1.215486
H	6.857417	2.678235	0.654637
H	6.153098	5.193176	-1.020349
H	7.60408	4.940983	0.133608
