13

O	1.995808	-1.218998	0.461149
C	2.885976	-0.453737	-0.198077
O	3.565793	-0.925088	-1.068524
C	2.949769	0.966727	0.230295
C	3.808696	1.813999	-0.365163
C	3.959858	3.213944	-0.030058
C	4.82919	4.02788	-0.647799
H	1.536533	-0.698286	1.1296
H	2.292621	1.319859	1.034517
H	4.438367	1.401025	-1.163122
H	3.32447	3.608998	0.771409
H	5.47624	3.661129	-1.450919
H	4.922959	5.080798	-0.371597
