14

C	0.94617	-0.132644	-0.003562
C	2.415082	0.05653	-0.004735
C	3.215348	1.167753	-0.001133
C	2.82538	2.607988	0.005091
C	4.521377	0.599276	-0.005235
N	4.495544	-0.706809	-0.011171
O	3.177153	-1.045386	-0.010397
H	0.437967	0.839747	0.009183
H	0.623875	-0.708574	0.877995
H	0.619314	-0.687003	-0.897266
H	3.715693	3.251656	0.015641
H	2.222566	2.865751	0.890396
H	2.235649	2.877235	-0.885666
H	5.482631	1.115091	-0.004291
