14

C	1.820772	-0.790536	-0.701514
O	1.732537	0.36064	0.108871
C	2.57967	1.383031	-0.152859
C	2.220907	2.666469	0.038587
C	0.869589	3.097185	0.48388
C	3.915076	1.052753	-0.580817
N	4.982887	0.765902	-0.931806
H	1.075802	-1.499304	-0.318776
H	2.820354	-1.255182	-0.647058
H	1.592108	-0.559295	-1.756581
H	2.991737	3.423981	-0.125754
H	0.17437	2.248473	0.523321
H	0.462223	3.866861	-0.192234
H	0.915667	3.553034	1.48759
