17

C	0.901727	-0.021861	0.160064
C	2.405436	-0.005139	-0.050351
C	2.764017	0.021993	-1.525581
C	3.189025	1.041905	0.785026
N	3.948747	-0.016129	1.462514
C	3.20774	-1.06485	0.750551
H	0.650574	-0.041258	1.232173
H	0.444269	-0.908134	-0.310237
H	0.428919	0.871113	-0.281586
H	3.856673	0.033713	-1.669997
H	2.348837	0.917861	-2.016542
H	2.363953	-0.864532	-2.045189
H	2.566229	1.635614	1.478705
H	3.786925	1.749635	0.181935
H	4.945822	-0.004307	1.276196
H	3.818078	-1.741724	0.124851
H	2.596129	-1.692149	1.424348
