15

C	0.984816	0.052484	0.144674
C	2.426962	0.081246	-0.237931
C	3.178083	1.18343	-0.31218
C	4.636665	1.342294	-0.687685
C	4.813281	2.829718	-0.568612
C	3.642968	3.348558	-0.191888
O	2.650852	2.429862	-0.026746
H	0.819597	-0.564895	1.044018
H	0.364754	-0.385462	-0.656081
H	0.608778	1.063294	0.352253
H	2.921936	-0.863688	-0.480782
H	4.839463	0.96705	-1.706362
H	5.298619	0.776962	-0.008116
H	5.730463	3.383931	-0.756302
H	3.349963	4.379267	0.00513
