14

N	2.289324	-1.235925	0.79248
C	2.380599	-0.323393	-0.228543
N	1.878595	-0.418296	-1.3987
C	3.166602	0.924787	0.105502
C	4.681127	0.72729	-0.061114
C	5.247223	-0.196756	0.915105
N	5.641875	-0.934619	1.71551
H	2.931993	-1.177739	1.572532
H	1.968433	-2.169946	0.572373
H	1.398957	-1.314366	-1.525894
H	2.941715	1.266579	1.128392
H	2.84241	1.700548	-0.599062
H	5.205321	1.691075	0.038868
H	4.893886	0.346654	-1.073189
