11

C	1.028322	0.053802	-0.002982
C	2.534887	-0.06898	0.029189
C	3.174596	-1.246518	0.077847
C	3.233346	1.179836	-0.024496
C	3.701585	2.293453	-0.089978
H	0.71158	1.042203	0.348518
H	0.550163	-0.723689	0.60915
H	0.65005	-0.084567	-1.028331
H	2.598488	-2.171482	0.119859
H	4.263658	-1.290067	0.07621
H	4.137184	3.272838	-0.137947
