19

C	3.981439	2.605663	-3.078145
O	4.96976	2.155053	-2.19627
C	4.616307	1.859221	-0.92598
C	3.375835	1.961177	-0.423064
C	5.814783	1.393813	-0.138418
C	6.385165	0.10446	-0.730341
C	6.875912	2.492281	-0.068244
H	4.471875	2.789887	-4.042753
H	3.51828	3.544019	-2.723877
H	3.184656	1.852426	-3.215515
H	2.518879	2.301167	-1.00477
H	3.202052	1.690981	0.618486
H	5.45776	1.184115	0.882799
H	6.715092	0.271598	-1.766595
H	5.630682	-0.696995	-0.738835
H	7.251125	-0.24308	-0.146101
H	7.230422	2.748954	-1.077699
H	7.741262	2.1605	0.525821
H	6.472996	3.406822	0.39227
