16

C	0.938318	-0.078626	-0.028686
C	2.453713	0.080292	0.012186
O	3.080391	-0.762411	-0.930545
C	2.875781	1.530697	-0.150439
C	2.886183	2.062903	-1.551439
C	3.210538	2.272491	0.909705
H	0.454994	0.503212	0.769066
H	0.669644	-1.13895	0.090689
H	0.527851	0.27097	-0.991309
H	2.811592	-0.266539	0.995453
H	2.606969	-0.681358	-1.765466
H	3.608444	1.498027	-2.162906
H	3.164867	3.125105	-1.581426
H	1.899729	1.958678	-2.036212
H	3.223508	1.848318	1.918634
H	3.486489	3.32619	0.810265
