13

N	1.047742	0.086285	-0.537987
C	2.170964	0.055748	-0.261818
C	3.612829	0.016674	0.063787
N	3.974366	-1.167861	0.817333
C	4.796138	-0.819868	1.965115
C	4.68909	0.671214	2.025773
C	4.025329	1.149302	0.974762
H	4.143263	0.10447	-0.90965
H	4.324576	-1.928296	0.24964
H	5.856665	-1.129303	1.85683
H	4.430036	-1.29339	2.896422
H	5.109513	1.2688	2.836851
H	3.793859	2.192986	0.758653
