16

C	2.024139	-0.435801	-1.248862
O	2.267498	0.114288	0.009612
C	3.043102	1.267544	-0.02721
C	2.410807	2.587307	-0.524361
C	3.137108	3.296615	0.635654
C	3.279456	1.928306	1.331029
H	1.416958	-1.341705	-1.111105
H	2.962458	-0.718936	-1.767526
H	1.468929	0.258339	-1.911055
H	4.002443	1.075479	-0.553808
H	1.322102	2.553204	-0.357182
H	2.609193	2.92076	-1.554211
H	4.111272	3.70099	0.321337
H	2.592552	4.087981	1.17068
H	4.208269	1.695089	1.87256
H	2.419327	1.714188	1.984367
