17

C	0.902718	0.004711	0.145473
C	2.391959	0.021869	-0.111444
C	3.243738	1.074153	0.635442
N	4.157983	-0.000223	0.998072
C	3.259036	-1.058328	0.580814
N	4.949647	-0.086694	2.051319
C	5.341492	0.976141	2.646148
H	0.429686	-0.877645	-0.313551
H	0.413748	0.898644	-0.272754
H	0.686953	-0.02264	1.225775
H	2.596535	0.054021	-1.193076
H	2.732453	1.510157	1.519095
H	3.681956	1.895306	0.042505
H	3.71284	-1.835454	-0.056771
H	2.743441	-1.546964	1.429285
H	6.01746	0.864021	3.498409
H	5.050705	1.993044	2.336339
