18

C	0.998599	-0.119768	0.222883
C	2.474587	0.039343	-0.067873
C	2.783388	0.040505	-1.56094
N	2.187083	1.178345	-2.22955
C	3.211081	1.133021	0.726147
C	4.027778	-0.0356	1.285064
O	3.248095	-0.994733	0.573541
H	0.827027	-0.168584	1.308085
H	0.616285	-1.050246	-0.226183
H	0.430365	0.733316	-0.179695
H	2.489511	-0.954392	-1.960047
H	3.879131	0.100225	-1.665025
H	1.192046	1.029961	-2.382032
H	2.598124	1.313811	-3.148929
H	2.589503	1.661375	1.462293
H	3.742215	1.86978	0.108586
H	5.092445	-0.057293	0.986928
H	3.974767	-0.184546	2.378756
