17

C	0.993411	-0.137182	0.133759
C	2.487466	-0.005031	-0.159174
C	2.972049	1.36768	-0.072754
C	3.346119	2.517748	0.00421
C	3.818525	3.893483	0.105863
O	2.851882	4.790527	-0.363947
C	3.264339	6.118643	-0.281502
H	0.676223	-1.187942	0.058023
H	0.399006	0.454385	-0.57753
H	0.757684	0.22184	1.146372
H	2.710013	-0.403888	-1.164155
H	3.064327	-0.629064	0.545161
H	4.764518	3.996603	-0.468928
H	4.077004	4.113408	1.164722
H	2.448149	6.747792	-0.663514
H	4.171557	6.315094	-0.888947
H	3.485598	6.425655	0.761071
