13

C	1.088832	-0.004423	-0.1657
N	2.502372	-0.003797	0.089059
C	3.342061	-1.097766	0.243546
N	4.569584	-0.839006	0.468529
C	4.666205	0.605356	0.485787
C	3.26742	1.147527	0.229565
O	2.864106	2.281024	0.155313
H	0.777463	1.045642	-0.256191
H	0.528019	-0.470644	0.659717
H	0.848596	-0.52879	-1.103601
H	2.927264	-2.10945	0.167236
H	5.049344	0.973131	1.452595
H	5.367345	0.972096	-0.282865
