17

C	0.878102	-0.248058	0.053448
C	2.39766	-0.089128	-0.003905
C	3.005588	-0.917554	-1.136323
C	2.759607	1.350539	-0.170825
N	3.444074	1.978621	0.701751
N	3.669235	3.302798	0.347344
C	4.338725	3.93642	1.222065
H	0.444727	0.322402	0.888429
H	0.605454	-1.306356	0.185912
H	0.40602	0.103388	-0.879025
H	2.833137	-0.412549	0.955765
H	2.620577	-0.591691	-2.116784
H	2.750203	-1.981902	-1.016088
H	4.102347	-0.828736	-1.156094
H	2.418294	1.874709	-1.083459
H	4.571414	4.99047	1.033186
H	4.688805	3.459246	2.151644
