12

N	0.891918	0.040124	0.388746
N	2.227066	-0.023836	0.280543
C	2.885935	1.002916	-0.081838
C	4.386812	0.962562	-0.123622
C	4.933797	1.366677	-1.415798
C	5.367658	1.708849	-2.49357
H	0.457464	-0.871351	0.315122
H	0.413741	0.761347	-0.154815
H	2.391858	1.950814	-0.369897
H	4.705602	-0.062472	0.123525
H	4.805167	1.623336	0.658507
H	5.756551	2.009054	-3.448751
