16

C	1.150195	-0.289773	-0.081093
C	2.664837	-0.160895	-0.060697
C	3.145691	1.280975	0.00321
C	4.659389	1.422308	0.02396
N	5.051588	2.813222	0.136482
H	0.830148	-1.341661	-0.127193
H	0.716261	0.228194	-0.951867
H	0.699429	0.156106	0.820353
H	3.091463	-0.649498	-0.955259
H	3.072817	-0.717334	0.802254
H	2.737542	1.783259	0.897497
H	2.741941	1.838931	-0.863346
H	5.077539	0.896364	-0.864377
H	5.053689	0.879209	0.901553
H	4.769078	3.325393	-0.697942
H	6.064032	2.898899	0.190884
