11

C	0.997265	0.064963	-0.005296
C	2.470729	0.067221	-0.002029
N	3.247588	1.082713	0.001346
C	4.564924	0.502772	0.002467
N	4.678475	-0.771426	0.000135
C	3.329613	-1.215739	-0.002977
O	2.935919	-2.343851	-0.005319
H	0.601264	1.087353	0.003308
H	0.621344	-0.492899	0.86776
H	0.626013	-0.474896	-0.891712
H	5.424596	1.181129	0.005317
