15

C	1.021609	-0.047511	-0.044854
C	2.503172	0.077961	-0.02201
C	3.207495	1.231863	0.060011
C	4.637658	1.186348	-0.187194
C	5.270803	0.001587	-0.161501
C	4.467229	-1.190458	0.261526
O	3.120202	-1.110346	-0.193241
H	0.709079	-0.539465	-0.980592
H	0.535679	0.933516	0.02134
H	0.671431	-0.685426	0.782367
H	2.680718	2.179179	0.175887
H	5.1638	2.106627	-0.455048
H	6.327762	-0.111178	-0.412976
H	4.865453	-2.130547	-0.144544
H	4.453861	-1.28242	1.370441
