17

C	1.038965	0.073742	-0.009031
C	2.531671	0.010225	-0.085722
N	3.165872	1.081813	-0.395363
N	4.513574	1.060117	-0.511438
C	5.262745	0.033977	0.175214
C	4.667894	-1.316056	-0.19045
C	3.189782	-1.322146	0.186359
H	0.57202	-0.589781	-0.757478
H	0.696935	1.101601	-0.186686
H	0.675936	-0.258461	0.979034
H	4.887479	1.997928	-0.437513
H	6.31734	0.106822	-0.131798
H	5.224115	0.163549	1.279433
H	5.21046	-2.132744	0.308661
H	4.780198	-1.46171	-1.276908
H	3.056181	-1.569122	1.255738
H	2.647573	-2.110574	-0.363533
