15

N	1.496227	-0.289686	-0.990565
C	2.551924	-0.116936	-0.01017
C	2.945898	1.32151	0.093616
C	4.198091	1.761275	-0.081272
N	4.610168	3.08196	0.013013
C	5.889461	3.520517	-0.180959
O	6.237646	4.671289	-0.097088
H	1.171456	-1.253883	-1.005997
H	1.846858	-0.080307	-1.923471
H	3.464476	-0.728065	-0.187456
H	2.155371	-0.450208	0.966806
H	2.136639	2.030095	0.306228
H	5.008972	1.062362	-0.316893
H	3.929015	3.799786	0.243937
H	6.586386	2.682531	-0.429128
