17

O	0.903051	0.538217	-0.607214
C	2.247826	0.367035	-0.243758
C	2.958412	1.691531	-0.421613
C	4.445002	1.623916	-0.075726
O	5.109626	0.635329	-0.823488
C	5.095035	2.977604	-0.188501
C	6.256647	3.203907	-0.801107
H	0.464123	-0.315878	-0.559322
H	2.757745	-0.396309	-0.862122
H	2.353139	0.039222	0.81217
H	2.46032	2.45262	0.201182
H	2.838051	2.023469	-1.468632
H	4.535001	1.294411	0.977631
H	5.065796	0.902136	-1.750298
H	4.547838	3.807165	0.274815
H	6.824246	2.380879	-1.244933
H	6.684951	4.207276	-0.863054
