17

O	2.501218	-0.99015	1.181333
C	1.478403	-0.057914	1.423955
C	1.581125	1.047272	0.395826
C	2.907914	1.771551	0.451703
O	2.907106	2.770571	-0.541104
C	4.009636	3.521498	-0.675619
C	5.1463	3.460846	0.028983
H	2.460886	-1.676076	1.85366
H	1.558612	0.377845	2.442692
H	0.474256	-0.522293	1.354511
H	0.763256	1.769115	0.550308
H	1.452916	0.621403	-0.612563
H	3.736281	1.060527	0.286012
H	3.061401	2.229759	1.448929
H	3.876908	4.248084	-1.484107
H	5.315458	2.748212	0.837838
H	5.953434	4.152119	-0.215498
