13

N	0.983109	-0.131953	0.032841
N	2.282038	-0.061113	0.01109
C	2.887501	1.090642	0.006499
C	2.35706	2.453844	0.013677
C	3.430288	3.291809	0.000953
C	4.664436	2.511045	-0.015139
C	4.34374	1.19087	-0.01065
H	0.573362	-1.052446	-0.030483
H	0.381659	0.687515	-0.025619
H	1.309751	2.756343	0.03185
H	3.385626	4.382644	0.003525
H	5.668674	2.935434	-0.028846
H	5.009886	0.329475	-0.020008
