17

C	2.547559	-0.663606	1.483553
C	3.265779	-0.259252	0.197968
C	3.191824	1.209201	-0.065194
C	4.242775	2.029598	-0.194927
C	4.158618	3.479758	-0.484911
N	2.955355	4.085287	-0.189056
N	5.096243	4.16282	-1.028197
H	2.58179	-1.753511	1.633529
H	1.4878	-0.363087	1.460462
H	3.009009	-0.185444	2.36114
H	2.803965	-0.794143	-0.651996
H	4.319538	-0.580765	0.232362
H	2.183964	1.633218	-0.166189
H	5.258846	1.622265	-0.135291
H	2.491824	3.776986	0.656511
H	2.973722	5.091589	-0.312151
H	5.88218	3.554267	-1.259373
