18

C	2.724186	-0.848222	-0.603584
C	2.322833	0.41743	0.127331
N	3.331956	1.445722	-0.015682
C	3.272868	2.31065	-1.176395
C	2.963373	2.828159	0.178264
C	3.97922	3.630145	0.963452
O	5.266533	3.144916	0.743651
H	1.968717	-1.637248	-0.469765
H	3.688536	-1.221651	-0.228466
H	2.833053	-0.660398	-1.683605
H	2.202307	0.213916	1.204434
H	1.334299	0.769822	-0.240317
H	2.42993	2.176138	-1.867212
H	4.232843	2.552234	-1.643999
H	1.906977	3.045365	0.392496
H	3.697589	3.594403	2.038413
H	3.940737	4.690117	0.658189
H	5.149101	2.181522	0.667535
