15

C	0.923715	0.150779	0.041156
C	2.420974	0.025297	-0.129687
O	2.676268	-0.538879	-1.390753
C	3.131039	1.356274	-0.02116
C	3.968333	1.713062	1.142337
N	4.582013	1.252949	-0.097462
H	0.673478	0.578593	1.023279
H	0.447258	-0.835837	-0.045088
H	0.507063	0.798753	-0.74546
H	2.823311	-0.62758	0.674584
H	3.636618	-0.513533	-1.495723
H	2.647629	2.175399	-0.571325
H	4.046546	1.019714	1.987287
H	4.052562	2.770347	1.416543
H	4.977513	2.035313	-0.615678
