16

C	0.973991	0.068679	-0.107584
C	2.451247	-0.154849	0.011392
C	2.89274	-1.566882	-0.228673
C	3.283312	0.865576	0.315068
C	4.726196	0.811554	0.466664
C	5.489603	1.871102	0.776325
H	0.695244	1.115872	0.075481
H	0.420467	-0.564943	0.606971
H	0.612734	-0.213252	-1.112255
H	2.396932	-2.250474	0.48125
H	3.976298	-1.712216	-0.136775
H	2.590428	-1.897899	-1.237093
H	2.833478	1.853885	0.4704
H	5.218388	-0.15563	0.318153
H	5.051704	2.861392	0.936987
H	6.573419	1.782635	0.883049
