21

C	2.127534	-1.315215	0.84618
C	3.141196	-0.425057	0.146971
C	2.991882	1.046058	0.499244
N	4.005966	1.851819	-0.138444
C	3.880173	3.272045	0.093446
C	5.066944	4.021992	-0.490963
N	5.247179	3.691476	-1.896515
H	2.251795	-2.370943	0.560807
H	1.094765	-1.022983	0.594363
H	2.229796	-1.252934	1.94218
H	3.044757	-0.542314	-0.948335
H	4.169407	-0.73676	0.396762
H	3.086681	1.167394	1.594617
H	1.955362	1.376532	0.249583
H	3.97037	1.695979	-1.145381
H	3.843012	3.452464	1.182134
H	2.940865	3.692682	-0.331892
H	5.961082	3.807945	0.130597
H	4.87057	5.103294	-0.403896
H	5.770375	2.821215	-1.97598
H	5.811039	4.397021	-2.36335
