13

O	0.943932	-0.091729	-0.387052
C	2.127827	-0.007916	-0.143091
C	2.810132	1.29841	0.222856
C	4.265101	1.25087	-0.206061
N	4.874682	0.048859	0.319765
N	4.285892	-1.121369	0.184156
C	3.019303	-1.178846	-0.08887
H	2.2663	2.136329	-0.233757
H	2.739239	1.406392	1.320284
H	4.830013	2.124021	0.151302
H	4.320193	1.241729	-1.315851
H	5.885332	-0.013734	0.334272
H	2.573544	-2.171936	-0.195483
