18

N	2.588548	-0.413742	1.460002
C	2.396036	0.088582	0.101404
C	2.72796	1.56065	0.010671
C	1.735319	2.457275	-0.058682
C	4.17606	1.97431	0.006262
C	4.962926	1.706213	1.297659
O	5.219072	0.361825	1.537752
H	2.395408	-1.412339	1.511358
H	1.947021	0.051562	2.10031
H	1.366986	-0.069828	-0.273552
H	3.071983	-0.47696	-0.561556
H	0.684942	2.148086	-0.06946
H	1.937202	3.531209	-0.119754
H	4.233868	3.051687	-0.219739
H	4.701179	1.441826	-0.807135
H	4.428806	2.196439	2.141132
H	5.935568	2.219348	1.209048
H	4.343796	-0.056981	1.694171
