16

C	0.913549	-0.378241	0.029974
C	2.303572	0.100402	0.282323
C	2.774563	1.36041	0.209243
C	1.958878	2.56313	-0.149381
N	4.129464	1.594779	0.487212
C	4.826563	2.766941	0.47292
O	6.004448	2.8471	0.732427
H	0.892269	-1.121133	-0.786037
H	0.219005	0.428122	-0.242389
H	0.499506	-0.881846	0.9204
H	3.024974	-0.67778	0.562172
H	0.917936	2.287632	-0.348745
H	2.353327	3.060329	-1.050147
H	1.961453	3.305695	0.665415
H	4.695844	0.788931	0.737543
H	4.209579	3.651229	0.198279
