13

O	1.03068	0.249862	0.048673
S	2.594004	-0.089327	-0.262939
O	3.022486	-1.09456	0.683146
O	2.70192	-0.287361	-1.698202
C	3.347997	1.474375	0.201682
C	4.834119	1.346773	0.20032
C	5.631396	1.978164	-0.660669
H	0.567787	0.227821	-0.803133
H	2.943976	1.688313	1.203271
H	2.976549	2.218957	-0.516117
H	5.254034	0.671881	0.953807
H	5.231624	2.644187	-1.432161
H	6.716229	1.849196	-0.62546
