17

C	0.999725	-0.089805	0.26721
C	2.44253	0.017526	-0.225123
C	3.006898	1.357009	-0.097393
C	3.454639	2.480069	0.01517
C	3.994376	3.808466	0.144179
C	4.152839	4.693592	-1.070835
C	3.108237	5.018074	-0.054786
H	0.624142	-1.117942	0.150938
H	0.338983	0.582518	-0.299632
H	0.925276	0.185495	1.329723
H	2.501185	-0.298398	-1.281495
H	3.080166	-0.690958	0.331508
H	4.770983	3.909836	0.911253
H	3.828807	4.281201	-2.029186
H	5.048717	5.318074	-1.122351
H	3.268281	5.871569	0.609753
H	2.063029	4.829345	-0.312043
