17

O	0.728393	-0.04894	-0.066392
C	2.124013	-0.005702	-0.11071
C	2.629481	1.404376	-0.010338
C	1.801787	2.438663	0.155391
C	4.128254	1.554612	-0.107917
C	4.858929	0.876689	1.014989
C	5.764915	-0.091886	0.875009
H	0.454056	-0.969608	-0.061724
H	2.525334	-0.442898	-1.052067
H	2.586607	-0.59472	0.709296
H	0.723341	2.280814	0.220789
H	2.183468	3.46083	0.226941
H	4.373282	2.629757	-0.104552
H	4.484558	1.147074	-1.071179
H	4.5978	1.225107	2.022706
H	6.048359	-0.468666	-0.113591
H	6.261664	-0.540174	1.739429
