13

O	2.6106	-1.117682	0.043347
C	2.12636	-0.008487	0.006167
C	2.898459	1.225671	0.003255
C	2.402834	2.493828	-0.038611
C	3.502667	3.44239	-0.026556
C	4.670468	2.756684	0.022792
C	4.390702	1.292826	0.045613
H	1.015013	0.137207	-0.029951
H	1.343624	2.760051	-0.075863
H	3.39083	4.527634	-0.053563
H	5.671999	3.189331	0.043235
H	4.847659	0.759253	-0.808024
H	4.796525	0.795753	0.945839
