12

C	1.420686	-0.468662	-0.798776
C	2.237156	-0.012172	0.147335
C	3.027	1.262894	0.024938
C	2.735837	2.251052	1.167474
O	1.863072	2.087243	1.966044
C	4.469947	1.025401	-0.041628
N	5.613944	0.852142	-0.066064
H	0.864916	-1.399615	-0.664077
H	1.274424	0.067168	-1.742187
H	2.368405	-0.558772	1.086429
H	2.748281	1.796557	-0.90485
H	3.401772	3.149834	1.182002
