13

C	1.299059	0.133091	0.481036
C	2.447486	0.025238	0.113622
C	3.849131	-0.094359	-0.3548
O	4.635602	0.966507	0.102665
C	5.130585	0.584012	1.370767
C	4.898017	-0.941251	1.421506
O	4.457252	-1.256609	0.118271
H	0.278377	0.222499	0.80608
H	3.874581	-0.106651	-1.456457
H	6.194343	0.861009	1.421575
H	4.591523	1.104616	2.180911
H	5.809269	-1.520432	1.626447
H	4.131164	-1.206919	2.171587
