12

C	3.085715	-1.163891	0.530871
O	2.381854	0.018755	0.251224
C	3.101058	1.12998	0.113577
N	2.483665	2.254525	-0.158567
O	3.468269	3.196497	-0.238608
C	4.65443	2.641094	-0.016938
C	4.515913	1.308507	0.220093
H	2.339906	-1.964769	0.606404
H	3.633687	-1.096458	1.487118
H	3.798563	-1.414555	-0.274574
H	5.515595	3.306292	-0.057487
H	5.290384	0.578843	0.435647
