20

C	0.961547	0.021627	-0.08279
C	2.47779	0.002419	0.029715
N	3.031099	0.01443	-1.323586
C	3.030673	1.132064	0.92283
C	4.465648	0.700464	1.238507
C	4.43328	-0.848352	1.231252
C	3.018079	-1.234005	0.763264
H	0.484587	-0.00576	0.908672
H	0.612639	-0.839658	-0.671564
H	0.619087	0.936884	-0.593935
H	4.045528	-0.071416	-1.29921
H	2.833972	0.908961	-1.771369
H	2.435376	1.187302	1.850055
H	2.963981	2.118645	0.435249
H	5.155531	1.076825	0.465946
H	4.824775	1.113789	2.192642
H	5.203178	-1.256713	0.557613
H	4.653559	-1.268369	2.224161
H	2.993432	-2.122875	0.11507
H	2.372926	-1.439912	1.632159
