12

O	0.932829	0.114908	1e-06
N	2.274422	-0.086153	-1e-06
C	2.920287	1.022968	-2e-06
C	4.336861	1.035789	-2e-06
C	5.55357	1.116892	-1e-06
C	6.971363	1.155774	-0.0
C	7.705857	2.279768	1e-06
H	0.570115	-0.777759	4e-06
H	2.375849	1.980773	-1e-06
H	7.475606	0.181442	-1e-06
H	7.238451	3.26768	2e-06
H	8.797429	2.232279	1e-06
