12

C	0.181203	-0.921883	-0.430678
C	1.062519	0.23082	-0.061876
O	2.132659	0.485949	-0.536594
O	0.47565	0.975711	0.911605
C	1.134491	2.079821	1.381847
C	0.589954	2.838159	2.327878
H	-0.794103	-0.548836	-0.77538
H	-0.005747	-1.545622	0.455799
H	0.66129	-1.513447	-1.217691
H	2.107742	2.260029	0.918124
H	-0.389084	2.602857	2.750203
H	1.126536	3.714741	2.691654
