14

C	1.087934	-0.036535	-0.730034
N	2.524769	-0.067915	-0.730289
C	3.246223	0.341242	0.326829
O	2.791978	0.762712	1.374706
C	4.764312	0.223091	0.090269
C	5.622748	0.658739	1.231762
O	5.181675	-0.197611	-0.963995
H	0.709936	-0.484448	-1.657734
H	0.709108	0.995955	-0.654368
H	0.683956	-0.596923	0.12801
H	3.054267	-0.388658	-1.533926
H	5.346229	0.098965	2.137809
H	5.415473	1.715382	1.461486
H	6.681342	0.514203	0.985414
