19

C	0.829725	1.406797	0.902523
N	1.773441	1.095276	-0.142238
C	3.127261	1.506834	0.08437
C	3.825782	0.958885	1.316305
N	3.785338	-0.492559	1.325671
C	3.937248	1.723756	-1.156178
C	3.469554	2.903556	-0.350634
H	1.022024	0.922966	1.885014
H	-0.185563	1.119005	0.587881
H	0.822607	2.494604	1.077819
H	1.746465	0.111795	-0.399767
H	3.377987	1.43293	2.217765
H	4.878477	1.283843	1.298135
H	2.830656	-0.806311	1.493715
H	4.332089	-0.85785	2.102247
H	3.435865	1.533921	-2.107963
H	4.995551	1.452593	-1.127065
H	4.205477	3.463868	0.233904
H	2.651756	3.501552	-0.760025
