14

C	1.064948	-0.000742	0.206451
C	2.380579	-0.001092	-0.011284
C	3.250896	-1.235052	-0.170506
C	4.601682	-0.669597	-0.501364
C	4.602949	0.667062	-0.496066
C	3.253228	1.232458	-0.160736
H	0.503113	0.932525	0.30433
H	0.501413	-0.933738	0.296869
H	2.8696	-1.910193	-0.958006
H	3.276186	-1.83818	0.75648
H	5.472074	-1.295289	-0.711788
H	5.474551	1.292725	-0.701556
H	3.279618	1.828184	0.770982
H	2.873263	1.914518	-0.942897
