14

C	1.062381	-0.524244	0.315564
C	2.52974	-0.746081	0.052349
O	2.969043	-1.814348	-0.29638
C	3.429019	0.466052	0.24157
C	4.879985	0.131771	0.238059
N	5.63189	0.599444	1.150096
O	6.934415	0.214226	1.005252
H	0.90622	-0.375927	1.396598
H	0.488996	-1.398817	-0.016201
H	0.699691	0.384386	-0.189055
H	3.165777	1.005407	1.165808
H	3.192294	1.160264	-0.588892
H	5.27707	-0.525837	-0.549071
H	7.373008	0.622803	1.758601
