14

C	2.058954	-1.261271	-0.50815
C	3.004713	-0.49905	0.05734
C	3.306917	0.86169	-0.35189
C	4.259172	1.622153	0.208281
C	4.579971	3.022674	-0.227738
C	4.466906	3.994663	0.859748
N	4.381905	4.752926	1.729639
H	1.864007	-2.279318	-0.164321
H	1.446452	-0.887609	-1.334852
H	3.599329	-0.904089	0.884882
H	2.706155	1.274142	-1.172852
H	4.857508	1.221166	1.03444
H	3.917724	3.339357	-1.049289
H	5.613645	3.081816	-0.613507
