19

C	0.912146	-0.082836	0.210329
C	2.409739	-0.19176	-0.056182
C	2.698319	-1.093441	-1.250421
C	3.048691	1.179749	-0.263367
N	2.920551	2.019526	0.898128
C	3.178178	3.363749	0.887652
N	3.465405	4.125157	-0.0917
H	0.696159	0.588524	1.054612
H	0.475449	-1.067975	0.434229
H	0.391674	0.321899	-0.673609
H	2.890112	-0.64618	0.832809
H	2.255903	-0.67583	-2.170063
H	2.268658	-2.095528	-1.102823
H	3.779435	-1.21218	-1.421971
H	2.550276	1.676996	-1.115797
H	4.111131	1.053208	-0.554907
H	2.904984	1.562011	1.800304
H	3.093142	3.814474	1.891187
H	3.534528	3.602079	-0.968858
