16

C	1.038189	-0.106131	0.085082
C	2.538845	-0.076748	-0.005081
C	3.345442	-0.707225	-1.110408
C	2.709239	-1.38729	-2.268953
O	3.031687	-2.477927	-2.661155
N	3.169869	0.725688	-1.005344
C	4.321441	1.51734	-0.649716
H	0.680222	0.726002	0.711246
H	0.690986	-1.04557	0.54195
H	0.574635	-0.004488	-0.904759
H	3.053174	-0.131462	0.968419
H	4.303553	-1.153242	-0.807835
H	1.893469	-0.796963	-2.760148
H	3.988201	2.485792	-0.247426
H	4.926043	1.712568	-1.547964
H	4.971495	1.032165	0.108479
