15

C	3.209018	-0.701673	1.870561
C	3.097569	-0.320214	0.419164
O	2.795085	-1.102718	-0.447813
C	3.451015	1.119851	0.078493
C	4.967918	1.199685	-0.038247
N	5.582844	1.957932	0.92873
N	5.65755	0.553378	-0.892174
H	4.155824	-0.328204	2.291597
H	3.137596	-1.790669	1.981423
H	2.394374	-0.223052	2.4389
H	3.068075	1.807855	0.847188
H	2.995009	1.361825	-0.891088
H	5.083139	2.754964	1.29884
H	6.575739	2.102331	0.780745
H	5.051564	-0.03376	-1.468089
