15

C	0.749629	0.024023	-0.148761
C	2.236377	-0.012159	-0.207513
C	3.061851	0.871223	0.38439
C	4.503191	0.805751	0.305256
C	5.332903	1.695738	0.897965
C	6.747613	1.641243	0.824469
C	7.961993	1.615632	0.775412
H	0.34658	-0.907139	0.28539
H	0.314039	0.104266	-1.159314
H	0.381756	0.869254	0.451292
H	2.685377	-0.831798	-0.78433
H	2.633188	1.698133	0.965442
H	4.939108	-0.017664	-0.272019
H	4.903353	2.523107	1.477078
H	9.034984	1.590267	0.728964
