14

C	1.438469	2.390576	0.616219
N	2.636076	2.384611	0.196343
O	3.187382	1.136077	0.211101
C	4.528046	1.190039	-0.200925
C	5.558802	1.606002	0.854616
O	6.179966	0.322509	0.810314
C	5.207067	-0.172902	-0.104239
H	0.924597	3.355212	0.62719
H	0.925457	1.479661	0.955766
H	4.606993	1.710448	-1.167966
H	5.104993	1.834484	1.83536
H	6.248113	2.42069	0.573892
H	5.653877	-0.564447	-1.033907
H	4.55047	-0.944372	0.336888
