15

C	0.851148	0.024075	-0.132451
C	2.072634	0.298975	0.707815
O	2.252265	-0.228126	1.778466
C	3.05098	1.301404	0.132687
C	2.668853	2.787452	0.328126
O	3.817203	3.02626	1.123663
C	4.251535	1.669823	1.003901
H	0.349167	0.965964	-0.405948
H	0.157147	-0.625997	0.415016
H	1.148837	-0.463009	-1.074968
H	3.28027	1.041417	-0.912153
H	1.724868	2.961202	0.879122
H	2.651931	3.392816	-0.595723
H	5.23802	1.587719	0.516062
H	4.269673	1.139683	1.970384
