17

N	1.042375	-0.065804	-0.105038
C	2.457552	0.019216	0.012432
C	3.390021	-0.56856	-1.07369
C	4.449772	-0.326166	0.015066
C	3.367762	-0.737831	1.038749
N	4.478725	1.140703	0.070671
C	3.033693	1.437064	0.119052
H	0.582024	0.353235	0.700961
H	0.739215	-1.035555	-0.153328
H	3.495372	-0.018539	-2.02103
H	3.199675	-1.636152	-1.257128
H	5.443811	-0.790764	-0.023759
H	3.159732	-1.818753	1.059309
H	3.449537	-0.341427	2.066092
H	4.93929	1.449959	0.923293
H	2.703766	2.065671	-0.725435
H	2.720618	1.934532	1.055113
