14

O	1.092963	-1.1e-05	0.083107
C	2.289373	0.053135	0.029987
C	3.325479	-1.084735	0.052429
N	4.58414	-0.32443	-0.04408
C	4.220765	0.671299	-1.103797
C	3.215151	1.249717	-0.076817
C	4.305299	0.786809	0.921938
H	3.198416	-1.775795	-0.795474
H	3.273205	-1.67249	0.982012
H	3.843469	0.245494	-2.047625
H	5.066044	1.344389	-1.311021
H	2.755555	2.244839	-0.114641
H	5.162609	1.474326	0.980457
H	4.010222	0.473105	1.936533
