11

C	0.969572	-0.185505	0.087296
C	2.441738	-0.040034	0.129338
C	3.125939	1.116177	-0.043687
C	2.456627	2.360734	-0.296188
N	1.90048	3.356788	-0.499677
C	4.558987	1.146927	0.019034
N	5.716394	1.163365	0.071131
H	0.68535	-0.915901	-0.688508
H	0.45456	0.764354	-0.108236
H	0.606956	-0.597778	1.043972
H	3.037367	-0.939469	0.317664
