17

C	1.432811	-0.006644	1.117235
N	2.837409	0.32172	1.191544
C	3.186791	1.67773	0.817392
C	2.546766	2.698544	1.746798
C	4.71951	1.774249	0.866609
C	5.237849	3.061799	0.425848
N	5.632624	4.089925	0.069748
H	1.301395	-1.086637	1.279233
H	0.951996	0.253847	0.148465
H	0.866971	0.50333	1.91188
H	3.364506	-0.329718	0.615167
H	2.868488	1.918568	-0.223851
H	2.795645	2.463567	2.79418
H	1.452136	2.706308	1.645528
H	2.90542	3.712122	1.514255
H	5.169709	0.993977	0.229741
H	5.058496	1.578224	1.896999
