14

O	2.917992	-0.943294	-0.705616
C	2.367497	0.067383	0.100146
C	3.295675	1.243256	0.109901
C	3.342278	2.194351	-1.06422
C	2.777987	2.642506	0.247493
O	3.394212	3.586985	1.048907
H	2.348437	-1.716515	-0.654065
H	2.210938	-0.278626	1.142584
H	1.376509	0.397373	-0.277159
H	4.261137	1.04518	0.59138
H	2.665115	2.016733	-1.905118
H	4.323306	2.581497	-1.356853
H	1.690638	2.765675	0.304305
H	4.34722	3.515126	0.934977
