16

C	2.380607	-0.659358	1.446887
C	2.204615	0.047386	0.10545
C	2.793841	1.436312	0.089941
C	2.116811	2.599853	0.002446
C	0.64448	2.779539	-0.112297
C	4.224642	1.495276	0.208524
N	5.380981	1.4993	0.306886
H	1.965502	-1.67731	1.409723
H	1.868653	-0.110724	2.25186
H	3.444457	-0.739208	1.718993
H	1.138756	0.10178	-0.158032
H	2.68967	-0.544551	-0.689328
H	2.70923	3.521762	0.015267
H	0.087884	1.833951	-0.114419
H	0.395702	3.328554	-1.03635
H	0.270049	3.396555	0.722008
