18

C	0.967799	0.093123	0.168437
C	2.447787	-0.071799	-0.057138
O	3.227619	0.942996	0.579744
C	4.143451	-0.015348	1.125528
C	5.505444	0.036952	0.474499
C	3.217606	-1.177905	0.70289
N	3.804058	-2.311652	0.053367
H	0.408077	-0.729878	-0.303696
H	0.611114	1.040666	-0.263292
H	0.743614	0.103867	1.246239
H	2.663107	-0.112759	-1.146959
H	4.24581	0.117536	2.21814
H	5.427718	-0.038373	-0.621341
H	6.136376	-0.788995	0.835901
H	5.999838	0.991735	0.709043
H	2.627968	-1.533151	1.563285
H	4.187304	-2.068111	-0.856955
H	3.12489	-3.053072	-0.093412
