16

C	0.932914	-0.1396	0.397076
C	2.4475	-0.241847	0.354848
C	3.12042	1.056869	-0.061014
O	2.848176	2.127108	0.81959
C	4.623591	0.848824	-0.293383
N	5.394595	1.864563	0.157456
O	5.051969	-0.140447	-0.853326
H	0.476769	-1.07511	0.753056
H	0.523621	0.073581	-0.603277
H	0.607663	0.6746	1.062669
H	2.783869	-1.024216	-0.341256
H	2.845121	-0.535593	1.345294
H	2.714658	1.368673	-1.040963
H	2.940334	1.790671	1.719299
H	4.952021	2.694672	0.528341
H	6.385139	1.849882	-0.04416
