12

O	0.953855	-0.098912	-0.468016
C	2.116224	0.014487	-0.161596
C	2.785711	1.306797	0.232307
C	4.245246	1.196302	-0.14649
O	4.866023	0.061441	0.451007
N	4.256777	-1.124463	0.305255
C	3.022013	-1.156645	-0.056162
H	2.289226	2.156806	-0.256348
H	2.674451	1.429644	1.324248
H	4.843651	2.055503	0.1829
H	4.347671	1.095562	-1.244933
H	2.588762	-2.153892	-0.180782
