20

C	0.963728	-0.258744	0.092667
C	2.478076	-0.334658	0.205165
C	3.17034	0.982854	-0.11195
C	4.707298	0.949965	-0.049383
N	5.33531	2.176457	-0.525928
C	5.183671	0.671297	1.348228
C	5.763214	-0.453498	1.765011
H	0.489421	-1.22373	0.328523
H	0.648923	0.025275	-0.924804
H	0.548995	0.492076	0.784469
H	2.863236	-1.115421	-0.47498
H	2.763563	-0.660079	1.219458
H	2.807805	1.772988	0.5732
H	2.882333	1.312604	-1.127413
H	5.056653	0.126253	-0.698258
H	5.038222	2.960427	0.055139
H	5.003957	2.389453	-1.46575
H	5.002897	1.481184	2.069854
H	5.959483	-1.281523	1.076139
H	6.070246	-0.589832	2.805243
