17

C	0.999052	-0.021377	0.052795
N	2.440494	0.047607	0.035147
C	3.127557	-1.145165	-0.120675
C	2.598775	-2.345597	-0.403795
C	3.138952	1.266202	0.04472
C	2.40818	2.459099	0.600555
N	4.341158	1.433413	-0.34769
H	0.564096	0.946298	0.317069
H	0.662168	-0.768538	0.789693
H	0.599401	-0.31651	-0.934063
H	4.201842	-1.062601	0.067395
H	1.538431	-2.505	-0.606804
H	3.250913	-3.2188	-0.437294
H	1.950271	2.244982	1.578166
H	1.615208	2.807761	-0.080033
H	3.141148	3.266304	0.708668
H	4.729055	0.588932	-0.771283
