20

C	1.039488	-0.041002	-0.057446
C	2.550591	0.01049	0.069495
C	3.087897	1.161508	0.914953
C	4.500765	0.691615	1.238977
C	4.356552	-0.831536	1.415831
C	5.527422	-1.616906	0.842789
N	3.075738	-1.143749	0.780439
H	0.719888	-0.91438	-0.648086
H	0.650578	0.85939	-0.559006
H	0.579114	-0.121722	0.93921
H	2.981477	0.113846	-0.953768
H	2.483768	1.247549	1.833777
H	3.052602	2.129665	0.393224
H	5.165781	0.901619	0.383258
H	4.940782	1.181815	2.120069
H	4.291505	-1.067341	2.496273
H	5.641222	-1.417238	-0.235865
H	5.385552	-2.701777	0.978473
H	6.470974	-1.343377	1.341184
H	3.094563	-1.993239	0.225987
