13

C	0.969198	-0.02447	0.02154
C	2.464299	0.008076	-0.011058
C	3.205497	1.17928	-0.073468
C	4.597821	1.068387	-0.096083
N	5.242968	-0.091436	-0.061476
N	4.550916	-1.211533	-0.00271
C	3.226117	-1.17291	0.021635
H	0.54103	0.986043	-0.023945
H	0.607358	-0.508457	0.942498
H	0.569703	-0.605114	-0.824812
H	2.721743	2.159592	-0.104594
H	5.234854	1.957273	-0.144912
H	2.733496	-2.1511	0.070996
