13

C	3.21653	-2.354729	1.297618
C	3.580113	-1.072169	1.152383
C	3.027359	-0.173377	0.158965
C	3.412404	1.104137	0.042243
O	2.853173	1.900831	-0.919659
C	3.262178	3.179367	-1.017861
O	4.084489	3.704381	-0.329967
H	3.665156	-2.991113	2.063518
H	2.45668	-2.807418	0.652951
H	4.345145	-0.654928	1.818753
H	2.263177	-0.554005	-0.52727
H	4.164136	1.589149	0.670606
H	2.70683	3.663165	-1.84594
