18

C	0.994027	-0.068043	-0.055258
C	2.487728	0.180879	-0.156111
O	3.020076	-0.401632	-1.33468
C	2.916304	1.631054	-0.048053
C	2.070882	2.665988	-0.03294
C	4.411756	1.818687	0.021928
N	4.826367	3.194989	-0.139866
H	0.583988	0.287468	0.9016
H	0.799801	-1.146187	-0.143669
H	0.450914	0.4409	-0.868465
H	2.984965	-0.367918	0.664758
H	2.654132	0.090309	-2.079387
H	0.987363	2.534176	-0.073469
H	2.462817	3.682935	0.046483
H	4.861566	1.106	-0.699777
H	4.741791	1.469929	1.018634
H	4.679615	3.49336	-1.102801
H	5.8211	3.29215	0.045973
