14

C	0.975378	-0.353596	-0.344714
C	2.425741	-0.088053	-0.146352
C	3.024157	1.103705	0.060238
C	2.338125	2.446887	0.162664
O	2.740185	3.174216	1.286763
C	4.450488	1.134081	0.225342
N	5.603063	1.162156	0.351775
H	0.635332	-1.146761	0.340861
H	0.796004	-0.732272	-1.365406
H	0.340591	0.529886	-0.199392
H	3.07811	-0.967708	-0.18974
H	1.242511	2.305942	0.118934
H	2.614601	3.058458	-0.712306
H	2.555445	2.64951	2.073482
