18

C	0.978748	-0.041491	0.084619
C	2.473106	0.042954	0.018756
C	3.148562	1.199693	0.044064
C	4.644681	1.271336	-0.010979
C	5.253316	-0.089159	0.295752
N	4.580329	-1.091787	-0.50242
C	3.199807	-1.26921	-0.115433
H	0.651553	-0.86554	0.74083
H	0.551799	-0.243799	-0.913443
H	0.529762	0.890542	0.456937
H	2.592343	2.141206	0.125628
H	4.971725	1.611336	-1.010777
H	5.017497	2.024134	0.70501
H	6.326599	-0.094249	0.049058
H	5.168695	-0.275307	1.392357
H	5.070969	-1.979379	-0.447066
H	3.065181	-1.822263	0.847113
H	2.684457	-1.880586	-0.879607
