17

C	0.942927	0.090577	-0.037851
C	2.403667	-0.231337	-0.110881
C	2.704233	-1.661277	-0.479031
O	2.106653	-2.57533	0.411491
C	3.349227	0.694109	0.163995
C	4.792522	0.525223	0.145127
C	5.659841	1.510692	0.42322
H	0.757078	1.106156	0.338277
H	0.426726	-0.634212	0.611151
H	0.475002	-0.000519	-1.033912
H	3.790553	-1.836222	-0.57344
H	2.265343	-1.876133	-1.468689
H	2.4638	-2.396789	1.288447
H	3.004399	1.700856	0.432697
H	5.192087	-0.461811	-0.110143
H	5.313649	2.516958	0.680524
H	6.739733	1.344538	0.40275
