12

N	1.016222	-0.051687	-0.165752
C	2.428085	-0.056878	0.039338
C	3.291035	-0.711421	-1.013053
C	3.276523	0.777807	-0.87297
O	4.370409	1.487279	-0.404738
H	0.585691	0.727768	0.327702
H	0.592252	-0.904314	0.194267
H	2.830365	-0.126453	1.064786
H	2.79546	-1.1619	-1.876938
H	4.182465	-1.248359	-0.669115
H	2.716327	1.326504	-1.639116
H	5.108236	0.879683	-0.306589
