18

C	0.852091	0.014592	-0.231513
C	2.322184	-0.03154	0.100689
C	2.63854	-0.0465	1.575198
C	3.253995	-0.807921	-0.829413
N	2.843666	-1.518685	-1.999312
C	3.276446	0.691255	-0.810951
O	4.332865	1.38034	-0.241013
H	0.669739	-0.016288	-1.316041
H	0.388201	0.934226	0.160362
H	0.321797	-0.842189	0.217126
H	3.722872	-0.034831	1.750621
H	2.211736	-0.941813	2.056356
H	2.216162	0.839687	2.076756
H	4.106783	-1.267125	-0.310726
H	2.354397	-0.91574	-2.654071
H	2.213121	-2.283192	-1.767251
H	2.817282	1.186606	-1.683919
H	5.110953	1.233998	-0.789215
