22

C	3.300421	-1.115769	-0.711823
C	2.68987	-0.148889	0.290789
C	3.249403	1.281449	0.264665
N	2.565972	2.169917	1.195018
C	4.775202	1.362281	0.47547
C	5.281408	2.775187	0.206339
C	5.205708	0.882418	1.859581
H	2.763641	-2.076423	-0.719062
H	4.355128	-1.334039	-0.484315
H	3.261511	-0.706942	-1.735277
H	2.791046	-0.555507	1.314006
H	1.602385	-0.075515	0.112447
H	3.062277	1.684165	-0.749382
H	2.541495	1.749894	2.123203
H	1.594437	2.290416	0.917708
H	5.236124	0.692333	-0.271243
H	4.788573	3.488228	0.883283
H	5.056641	3.088544	-0.825729
H	6.371559	2.84403	0.349599
H	4.791133	1.530457	2.648981
H	6.30181	0.914385	1.959344
H	4.886947	-0.15187	2.063177
