17

C	3.345017	-1.148985	0.036288
C	2.836948	0.062354	0.803207
C	3.201059	1.415678	0.185142
N	2.481839	2.557728	0.732732
C	4.663515	1.757545	0.254295
N	5.483516	1.043038	0.910529
O	6.756065	1.544676	0.890312
H	2.99095	-2.085371	0.493567
H	4.443909	-1.17381	0.020767
H	2.990143	-1.137461	-1.007322
H	3.211998	0.0396	1.840243
H	1.735126	0.025393	0.866807
H	2.947932	1.376961	-0.89326
H	2.626418	2.603128	1.74101
H	1.480353	2.447025	0.585165
H	4.99162	2.684893	-0.239996
H	7.255321	0.90721	1.410975
