12

C	1.097122	-0.12606	-0.213046
O	2.493916	-0.027676	-0.196834
C	3.033053	1.192945	0.002583
C	2.358133	2.344022	0.188276
C	4.468151	1.151857	-0.002778
C	5.679544	1.125132	-0.006144
H	0.856509	-1.182613	-0.384969
H	0.655462	0.482258	-1.023056
H	0.655296	0.194462	0.748042
H	1.26923	2.394228	0.194075
H	2.915325	3.267108	0.340816
H	6.753861	1.098076	-0.009805
