15

C	1.244993	-0.786732	0.72773
C	2.179643	-0.231464	-0.042433
C	2.484933	1.227583	-0.073089
O	3.885244	1.378871	0.121827
N	4.246164	2.708387	0.046984
C	4.71066	3.250608	1.239941
N	4.596372	2.786856	2.411174
H	1.034043	-1.858645	0.688278
H	0.647225	-0.188298	1.423312
H	2.773619	-0.850549	-0.725287
H	1.922582	1.773083	0.70581
H	2.205979	1.660322	-1.053648
H	4.842147	2.866328	-0.764125
H	5.173905	4.23729	1.069744
H	4.169191	1.854938	2.368202
