15

C	1.070895	-0.00103	-0.061679
C	2.567243	-0.107864	0.027651
C	3.200865	-1.283166	0.146944
C	3.335185	1.160607	-0.044611
C	4.347027	1.365424	-0.903709
C	2.979701	2.268215	0.895506
O	3.505532	3.352236	0.901237
H	0.65699	0.628421	0.74347
H	0.592153	-0.987572	0.002868
H	0.771475	0.470811	-1.012261
H	2.647365	-2.226037	0.175982
H	4.289614	-1.333563	0.23303
H	4.644871	0.601298	-1.625735
H	4.88029	2.32031	-0.885524
H	2.180883	2.021281	1.639762
