17

C	1.998651	-0.455266	-1.399438
O	2.17637	0.064126	-0.115263
C	3.022598	1.161051	-0.069099
C	2.471202	2.543436	-0.457064
O	2.880832	3.087159	0.794023
C	3.171566	1.784757	1.320001
C	4.49498	1.713492	2.032607
H	1.329542	-1.323525	-1.322414
H	2.95636	-0.786735	-1.847786
H	1.537797	0.279389	-2.089406
H	3.997846	0.938225	-0.548152
H	1.370849	2.530791	-0.579277
H	2.929003	3.065365	-1.314104
H	2.350546	1.426351	1.971758
H	5.308174	2.049703	1.371737
H	4.698886	0.681031	2.355104
H	4.487319	2.358603	2.923652
