15

C	1.135662	-0.556727	-0.475551
C	2.406827	-0.289769	-0.143823
C	3.025934	1.020238	-0.25617
C	4.295957	1.283938	0.08764
C	4.938872	2.638155	-0.00797
C	6.173314	2.630809	-0.789671
C	7.196596	2.607953	-1.436529
H	0.716506	-1.560302	-0.372165
H	0.4728	0.224126	-0.862
H	3.041972	-1.097082	0.24053
H	2.398099	1.830751	-0.648615
H	4.930068	0.474808	0.469153
H	5.174594	3.007951	1.007919
H	4.231595	3.364984	-0.441641
H	8.104384	2.586756	-2.010567
