13

C	0.959239	-0.007193	-0.00816
C	2.440608	0.063575	-0.000411
C	3.280113	1.127704	0.005633
N	4.579219	0.636978	0.011217
C	4.593947	-0.745191	0.008958
O	5.548771	-1.492998	0.012463
N	3.246466	-1.069148	0.001585
H	0.529848	1.00325	-0.007032
H	0.572795	-0.539662	0.877276
H	0.581738	-0.533873	-0.900897
H	3.051373	2.189696	0.006426
H	5.431837	1.176484	0.016677
H	2.933056	-2.028831	-0.001645
