14

C	1.110532	-0.066354	0.634349
C	2.495078	-2e-06	-0.013849
C	2.491824	-0.52498	-1.451173
C	3.868087	-0.800748	-1.998998
O	4.874169	-0.741029	-1.346697
C	3.017541	1.369129	0.028164
N	3.395596	2.462109	0.067577
H	1.138597	0.312912	1.665081
H	0.756716	-1.107868	0.659152
H	0.38094	0.53291	0.069644
H	3.205976	-0.615947	0.562826
H	1.961156	0.160463	-2.135066
H	1.931396	-1.476941	-1.500003
H	3.894401	-1.096814	-3.079508
