17

C	0.377592	-2.014552	0.111282
C	1.795706	-2.172854	-0.330659
C	2.486732	-3.322813	-0.273955
O	2.270906	-0.99558	-0.794331
C	3.606489	-0.936134	-1.236603
C	3.914078	0.469927	-1.631351
C	4.52036	0.820511	-2.764622
H	-0.241485	-1.665939	-0.730364
H	0.31149	-1.247892	0.899617
H	-0.03279	-2.958017	0.491222
H	2.002826	-4.215295	0.122346
H	3.519049	-3.41901	-0.609728
H	3.769997	-1.630472	-2.082269
H	4.281024	-1.254321	-0.415501
H	3.625979	1.23224	-0.897916
H	4.807431	0.075896	-3.514426
H	4.759417	1.863794	-2.985803
