18

C	0.883504	1.134856	-1.262179
C	2.366468	0.960874	-1.218454
C	3.153642	1.34637	-0.209026
C	4.649075	1.211043	-0.112698
C	5.287489	0.487082	-1.28988
C	5.28849	2.585447	0.10463
H	0.576939	1.739697	-2.132702
H	0.502553	1.628169	-0.35504
H	0.368609	0.164574	-1.362636
H	2.81845	0.476071	-2.092395
H	2.681219	1.833854	0.655977
H	4.8507	0.614215	0.798924
H	5.136175	1.046911	-2.22747
H	4.866095	-0.52035	-1.425833
H	6.372551	0.380869	-1.13851
H	5.133319	3.2276	-0.777686
H	6.372776	2.496917	0.277448
H	4.849623	3.101132	0.973251
