15

C	0.497724	-0.223312	0.086113
C	1.939784	-0.527706	0.308669
C	2.471117	-1.720791	0.568662
O	2.786095	0.577098	0.329776
C	2.946346	1.317735	-0.790272
C	3.848878	2.483754	-0.516975
O	2.43411	1.05569	-1.842334
H	0.158943	0.546063	0.7986
H	-0.113698	-1.124621	0.220002
H	0.344197	0.167081	-0.930694
H	1.83647	-2.60523	0.632598
H	3.544937	-1.828315	0.730162
H	4.813207	2.126607	-0.128248
H	3.40327	3.122525	0.259983
H	3.998333	3.056513	-1.438633
