22

C	2.35479	-0.86279	-1.298363
C	2.011537	-0.022749	-0.078658
C	2.712863	1.348926	-0.001832
C	2.278025	2.235497	-1.169604
C	2.309979	2.032303	1.314609
N	4.159395	1.170428	-0.131625
C	4.851706	0.423267	0.888262
H	1.886362	-1.856336	-1.236968
H	3.443093	-0.993355	-1.388975
H	2.005146	-0.393796	-2.230477
H	2.254608	-0.590712	0.836486
H	0.923428	0.152827	-0.029804
H	2.591586	1.801618	-2.129365
H	2.736131	3.235043	-1.088554
H	1.185826	2.370445	-1.180133
H	2.582414	1.42216	2.189502
H	1.22311	2.203299	1.357633
H	2.809189	3.009608	1.413619
H	4.597424	2.078523	-0.261431
H	4.5197	-0.627419	0.891721
H	4.740497	0.804943	1.925449
H	5.928061	0.409911	0.656619
