14

C	1.038428	0.171661	-0.024688
C	2.541654	-0.016078	0.116962
O	3.252855	1.159201	-0.217837
C	3.659799	1.125822	-1.541846
O	4.548009	0.0735	-1.803663
N	4.04898	-1.161638	-1.490386
C	3.085603	-1.187122	-0.651795
H	0.711493	1.011248	0.604763
H	0.495436	-0.733167	0.28825
H	0.764912	0.38888	-1.068132
H	2.776111	-0.214051	1.178932
H	4.205772	2.051832	-1.761749
H	2.787555	1.018546	-2.222455
H	2.692683	-2.186532	-0.432687
