14

O	2.597064	-0.390599	-1.527505
C	2.12721	0.06179	-0.281878
C	2.679882	1.428346	0.011992
C	1.869098	2.479751	0.210403
N	4.063045	1.548513	0.121374
C	5.03324	0.60185	-0.086138
O	6.208288	0.821266	0.083471
H	2.295035	-1.295283	-1.656192
H	2.429499	-0.621205	0.540014
H	1.025286	0.135118	-0.256709
H	0.788281	2.36784	0.121936
H	2.259932	3.467883	0.465996
H	4.430932	2.457465	0.388539
H	4.632289	-0.370445	-0.438505
