15

C	1.111717	-0.068924	0.316866
C	2.379108	0.186642	-0.430682
C	3.084402	1.318269	-0.36705
C	2.844839	2.570212	0.447074
O	3.737472	3.498921	-0.122179
C	4.783261	2.740049	-0.630009
O	4.221381	1.532813	-1.085702
H	1.210029	-0.933735	0.995375
H	0.279716	-0.30216	-0.368917
H	0.801268	0.791359	0.928728
H	2.763974	-0.601224	-1.085254
H	3.066524	2.397746	1.520546
H	1.818741	2.957432	0.363603
H	5.252237	3.269841	-1.472519
H	5.543772	2.518338	0.15138
