15

C	1.01502	-0.008842	0.282216
C	2.46243	-0.001595	-0.068435
N	3.124535	1.047039	-0.415168
C	4.478207	0.646638	-0.6153
C	5.249816	0.094443	0.556975
C	4.549291	-0.863788	-0.359221
N	3.19883	-1.163506	-0.008775
H	0.480949	-0.810459	-0.252177
H	0.576616	0.959219	0.01292
H	0.874104	-0.175164	1.36169
H	5.032298	1.159342	-1.408449
H	6.339557	0.141837	0.483744
H	4.84115	0.239769	1.561888
H	5.094663	-1.591792	-0.966375
H	2.800435	-2.08973	-0.048212
