19

C	0.734132	-0.357546	0.048989
C	2.252687	-0.219955	-0.074024
C	2.844632	-1.381636	-0.874542
C	2.615674	1.093266	-0.698336
C	3.345613	2.061557	-0.12157
C	3.678865	3.324922	-0.757047
C	4.406601	4.296427	-0.187419
H	0.305603	0.455154	0.654336
H	0.461199	-1.3163	0.517889
H	0.255501	-0.325586	-0.943872
H	2.685726	-0.244117	0.941798
H	2.448808	-1.389679	-1.903445
H	2.589075	-2.348872	-0.413223
H	3.940729	-1.30785	-0.936949
H	2.239718	1.25608	-1.71893
H	3.724789	1.906515	0.896933
H	3.297516	3.4721	-1.775125
H	4.805188	4.188566	0.826136
H	4.628113	5.228244	-0.71287
