14

N	0.954994	0.002635	0.047993
C	2.401721	-0.010736	-0.024935
C	2.931027	1.434784	0.078873
N	2.459967	2.142323	1.256293
C	4.391953	1.446356	-0.004302
C	5.600567	1.413748	-0.071611
H	0.58639	-0.919208	0.263538
H	0.549677	0.28049	-0.843745
H	2.819825	-0.488433	-0.934814
H	2.795425	-0.575084	0.837282
H	2.552071	1.97897	-0.809991
H	2.936783	1.773	2.078342
H	1.475024	1.891176	1.362894
H	6.673235	1.396629	-0.131076
