17

C	2.45701	-0.78046	1.009544
C	2.531885	0.244882	-0.105959
N	2.789407	1.574603	0.389677
C	4.097179	1.861457	0.975346
C	4.15875	3.386774	0.890854
C	3.172081	3.611721	-0.223777
N	2.441831	2.586257	-0.455246
H	2.201543	-1.771213	0.605534
H	1.69042	-0.495188	1.745902
H	3.417347	-0.881005	1.539346
H	1.576605	0.29516	-0.648486
H	3.306667	-0.055522	-0.846899
H	4.899565	1.397995	0.359537
H	4.181266	1.468329	1.997848
H	5.165802	3.781023	0.691017
H	3.796787	3.863811	1.820652
H	2.994225	4.550427	-0.752393
