19

N	3.290632	-0.858952	-0.157625
C	2.876711	-0.124464	1.018847
C	2.716258	1.340822	0.688646
O	3.97177	1.858294	0.339158
C	3.949768	3.209024	-0.036644
C	5.347345	3.617815	-0.439316
N	5.760312	2.88703	-1.618355
H	3.488886	-1.828967	0.075368
H	4.162458	-0.459135	-0.500098
H	3.572106	-0.198381	1.883181
H	1.900366	-0.504809	1.364132
H	2.300415	1.885571	1.561661
H	2.002888	1.454737	-0.152685
H	3.594622	3.841096	0.804107
H	3.25912	3.360922	-0.890858
H	6.004306	3.482559	0.447599
H	5.334408	4.698443	-0.66277
H	5.72423	1.889856	-1.413274
H	6.725929	3.100869	-1.855392
