17

C	2.081862	-0.117558	1.489307
C	2.271691	0.358843	0.050717
C	2.917964	1.709614	-0.113689
C	2.2635	2.763826	-0.616118
C	4.361173	1.855356	0.243944
C	4.884165	1.692638	1.608842
O	5.07349	0.697719	0.630573
H	1.496584	-1.04954	1.508513
H	1.542545	0.629991	2.092257
H	3.045988	-0.329935	1.971836
H	1.295533	0.388304	-0.458243
H	2.888539	-0.381396	-0.486792
H	1.208935	2.697689	-0.895807
H	2.759361	3.727432	-0.769022
H	4.925125	2.532385	-0.414367
H	4.193936	1.4443	2.423926
H	5.783338	2.24753	1.908244
