12

N	1.116189	0.010025	0.334739
C	2.349676	0.019879	0.026142
C	3.224309	-1.218506	-0.10457
C	4.570783	-0.673611	-0.486422
C	4.475504	0.662208	-0.557262
N	3.184271	1.092267	-0.25796
H	0.730949	0.957299	0.36557
H	2.792813	-1.900651	-0.856903
H	3.226505	-1.773656	0.848782
H	5.466405	-1.262081	-0.673368
H	5.245642	1.392885	-0.805581
H	2.881614	2.055243	-0.263836
