21

C	3.216251	1.002912	-2.444485
C	3.227521	0.157232	-1.180649
C	3.791637	0.893026	0.039863
C	5.223472	1.344956	-0.105677
C	6.231078	0.245478	-0.27619
C	5.528961	2.653546	-0.088615
C	6.870892	3.295556	-0.2241
H	2.802272	0.447097	-3.299829
H	4.231349	1.333186	-2.715349
H	2.606812	1.911091	-2.308251
H	3.801201	-0.769355	-1.356306
H	2.202056	-0.173066	-0.944274
H	3.71534	0.22566	0.918647
H	3.156181	1.768383	0.256536
H	6.096023	-0.270991	-1.242008
H	6.105243	-0.521203	0.50755
H	7.268722	0.601603	-0.236903
H	4.692904	3.353357	0.041294
H	7.69112	2.570252	-0.318639
H	7.090687	3.939535	0.6448
H	6.904657	3.951254	-1.111373
