17

C	0.99825	0.044791	-0.162254
C	2.489025	-0.049607	0.095939
C	3.050864	1.046242	0.997848
O	4.264018	0.531344	1.514614
C	4.256094	-0.828569	1.462937
C	5.283875	-1.564039	1.89491
C	2.956373	-1.289622	0.859546
H	0.651339	-0.780312	-0.802861
H	0.734992	0.9881	-0.666404
H	0.430829	-0.001648	0.781537
H	3.033725	-0.009729	-0.863769
H	2.35039	1.265645	1.827688
H	3.265761	1.989738	0.473647
H	5.245148	-2.650751	1.819785
H	6.166647	-1.090199	2.326217
H	3.071552	-2.188888	0.238701
H	2.235817	-1.528267	1.6632
