16

C	0.02929	1.662918	1.077331
C	0.842814	0.42994	0.718382
C	2.170996	0.785759	0.090854
O	2.857887	-0.418591	-0.210519
C	4.053373	-0.310264	-0.782264
N	4.582581	0.813361	-1.05526
O	5.820722	0.659545	-1.642661
H	-0.93488	1.386658	1.528198
H	-0.185366	2.277354	0.18808
H	0.562905	2.301681	1.79973
H	0.283852	-0.210882	0.016254
H	1.030763	-0.183988	1.614894
H	2.790355	1.402598	0.766714
H	2.040064	1.375642	-0.834282
H	4.529377	-1.277724	-0.991261
H	6.099357	1.567004	-1.796568
