20

C	1.592762	-0.920912	0.017776
C	3.066226	-0.535767	0.096991
N	3.913244	-1.29564	-0.826587
C	3.27432	0.960941	-0.139071
C	4.72071	1.453785	0.009844
C	5.285686	1.235043	1.410578
O	5.557655	0.897925	-0.968415
H	0.992171	-0.38484	0.768541
H	1.456064	-2.001677	0.184
H	1.181277	-0.676315	-0.976208
H	3.427433	-0.773486	1.113163
H	3.548141	-1.212558	-1.776544
H	3.898815	-2.288047	-0.598035
H	2.620614	1.522469	0.548964
H	2.937303	1.207025	-1.162867
H	4.704237	2.543877	-0.175381
H	5.363873	0.160915	1.642419
H	4.665576	1.71298	2.185967
H	6.299827	1.655461	1.465393
H	5.335725	-0.053969	-0.979868
