13

N	0.90084	0.724423	-0.822589
N	2.239819	0.745698	-0.87422
C	2.942138	1.234136	0.063733
C	4.447443	1.152203	-0.08436
O	4.801166	0.498541	-1.25909
C	5.011771	2.512994	0.00099
C	5.468955	3.631284	0.081455
H	0.483186	0.648466	-1.741774
H	0.453804	1.428176	-0.234131
H	2.524075	1.718755	0.961859
H	4.841867	0.588023	0.788249
H	3.954983	0.33422	-1.712132
H	5.883931	4.620061	0.14854
