13

C	0.861039	0.131877	-0.046727
C	2.340858	0.042889	-0.080989
N	3.075501	0.977543	0.387535
N	4.420746	0.704249	0.260551
C	5.148987	1.652211	0.724104
C	6.57053	1.579266	0.693856
C	7.783879	1.575272	0.696185
H	0.436759	-0.719814	0.510702
H	0.448119	0.073432	-1.067361
H	0.540993	1.071422	0.422559
H	2.817278	-0.85066	-0.521383
H	4.681765	2.552122	1.158903
H	8.858797	1.561211	0.692908
