19

C	1.02453	0.038132	-0.087151
C	2.526623	0.0462	0.001053
C	3.380521	-0.682431	-1.036518
N	2.847178	-1.362257	-2.171287
C	3.420704	0.815062	-0.95779
C	2.807157	1.657316	-2.049331
N	4.649391	1.400767	-0.487126
H	0.58427	1.013334	0.177095
H	0.59474	-0.712893	0.594678
H	0.680341	-0.218049	-1.1007
H	2.921931	0.001179	1.023521
H	4.27298	-1.17766	-0.628744
H	2.377756	-0.737045	-2.817583
H	2.18685	-2.088131	-1.903748
H	1.848482	1.265473	-2.415156
H	3.506623	1.745801	-2.894355
H	2.61028	2.673963	-1.671643
H	5.159238	0.745511	0.100372
H	4.444584	2.212129	0.095635
