14

C	0.96617	-0.01051	0.058915
C	2.480581	-0.031473	0.058051
C	3.125621	1.099687	0.869146
O	4.316875	0.546619	1.395376
C	4.231595	-0.810497	1.387876
O	5.059257	-1.533326	1.859309
N	3.05737	-1.153593	0.761671
H	0.556393	-0.860524	-0.507433
H	0.590407	0.910547	-0.413147
H	0.579305	-0.063886	1.087756
H	2.845876	0.00505	-0.988519
H	2.46527	1.406334	1.700474
H	3.370702	1.984882	0.266093
H	2.956948	-2.108151	0.442601
