15

C	0.888106	-1.368023	0.674412
O	1.390304	-0.080998	1.022096
C	0.769954	0.530864	-0.111881
C	-0.24914	1.602361	0.270331
C	-1.532051	0.826033	0.391046
C	-1.406197	-0.444808	-0.009235
C	-0.004142	-0.769991	-0.427654
H	1.683841	-2.039036	0.298757
H	0.369733	-1.862168	1.514943
H	1.519062	0.868937	-0.849699
H	0.056781	2.079771	1.216845
H	-0.32608	2.404455	-0.485715
H	-2.46125	1.269067	0.759258
H	-2.214345	-1.181352	-0.012265
H	0.080306	-1.222294	-1.427717
