17

C	0.719945	0.929728	-0.756174
C	2.211227	0.906046	-0.819051
C	3.033798	1.530052	0.029545
C	4.532596	1.513039	-0.046328
C	5.102809	2.873175	-0.310444
N	5.879527	3.440884	0.524719
N	6.415128	4.638376	0.230223
H	0.28671	1.336591	-1.685813
H	0.356634	1.53999	0.084203
H	0.30847	-0.087324	-0.642098
H	2.654962	0.31716	-1.634285
H	2.604661	2.127151	0.845935
H	4.851987	0.813161	-0.839074
H	4.965842	1.157764	0.90318
H	4.808683	3.370048	-1.257203
H	6.678639	5.151747	1.062189
H	5.915211	5.212752	-0.451984
