17

C	0.862284	-0.028638	0.171035
C	2.361884	0.054418	-0.016945
C	3.20669	1.098097	0.761562
C	4.214731	-0.001492	1.194013
C	5.571247	0.006024	0.506954
C	3.222952	-1.024895	0.636158
O	3.110823	-2.21127	0.745773
H	0.469936	-0.952578	-0.279765
H	0.348852	0.825982	-0.295545
H	0.599831	-0.04137	1.240656
H	2.611003	0.081739	-1.094149
H	2.656858	1.530406	1.610527
H	3.628667	1.918217	0.162458
H	4.343961	-0.10848	2.284694
H	5.465289	0.107733	-0.585198
H	6.114592	-0.929982	0.707839
H	6.18727	0.845641	0.864972
