17

C	2.356443	-0.953897	-1.075657
N	3.746471	-0.727592	-0.76908
N	3.99809	0.565165	-0.392409
C	5.118377	0.8361	0.148811
C	6.214329	-0.133354	0.449252
O	5.414317	2.102647	0.499222
C	4.434305	3.076762	0.232324
H	2.227993	-1.997203	-1.400738
H	2.055539	-0.29973	-1.907091
H	1.66967	-0.759027	-0.227429
H	4.101211	-1.419839	-0.108033
H	5.940501	-0.804661	1.281236
H	7.128702	0.403338	0.728713
H	6.407727	-0.762883	-0.434132
H	4.840356	4.031627	0.59026
H	3.489533	2.845974	0.751359
H	4.212827	3.137741	-0.84558
