13

N	0.97183	-6.6e-05	0.21782
C	2.314606	0.09033	0.056877
C	3.055663	1.22455	-0.027634
C	4.487091	1.063568	-0.12062
N	5.143053	-0.012406	0.142104
O	4.354539	-1.083867	0.537986
C	3.099977	-1.187886	-0.07915
H	0.500504	-0.874625	0.037391
H	0.405229	0.835626	0.175686
H	2.616028	2.223618	-0.012709
H	5.120698	1.914449	-0.391916
H	2.595266	-2.027147	0.423773
H	3.207845	-1.444525	-1.156899
