18

C	2.85107	-1.068345	-1.306103
C	2.637538	-0.440804	0.040235
C	1.890284	-1.022383	0.985718
C	3.317358	0.882297	0.276935
C	4.825663	0.795919	0.246282
C	5.614379	1.014099	-0.988482
N	5.546498	2.040128	0.037933
H	2.535999	-0.382106	-2.110647
H	2.291107	-2.007321	-1.414057
H	3.918592	-1.281401	-1.479917
H	1.398111	-1.983909	0.814297
H	1.742235	-0.553461	1.962788
H	3.00642	1.295804	1.249703
H	3.008324	1.612641	-0.491488
H	5.245449	0.077365	0.965014
H	5.099386	1.254931	-1.925938
H	6.540013	0.441989	-1.120591
H	6.402714	2.065138	0.58807
