15

C	0.872944	0.063319	0.101411
C	2.399312	0.038128	0.083234
C	3.063758	1.111569	-0.715231
N	3.85614	0.643744	-1.605484
N	3.834454	-0.768337	-1.541029
C	3.026697	-1.138293	-0.611049
C	2.769397	-2.563844	-0.284925
H	0.499797	0.981636	0.578001
H	0.474047	-0.793552	0.664384
H	0.469346	0.020306	-0.921057
H	2.780171	0.077351	1.123296
H	2.924829	2.189917	-0.587382
H	3.35891	-3.208102	-0.948844
H	1.701011	-2.808435	-0.404116
H	3.036398	-2.785034	0.760989
