20

C	2.159961	-0.330203	-1.563172
C	2.271169	0.169268	-0.13087
C	3.453777	1.101835	0.09444
N	3.37507	2.418763	-0.54767
C	2.959278	3.054604	0.699955
C	3.459545	1.813289	1.469861
C	4.826586	1.965417	2.104211
H	1.300034	-1.005023	-1.692688
H	3.066706	-0.879187	-1.865228
H	2.028924	0.501606	-2.274546
H	2.373266	-0.688586	0.556915
H	1.340842	0.688974	0.162323
H	4.389229	0.557704	-0.148041
H	2.759383	2.50827	-1.352189
H	3.468055	4.008962	0.926208
H	1.869399	3.215745	0.811269
H	2.738393	1.395946	2.190966
H	5.542041	2.381708	1.377412
H	5.217767	0.994399	2.447235
H	4.792358	2.64066	2.974058
