15

C	1.098734	0.003793	0.217768
C	2.598438	-0.040234	-0.086292
C	2.911591	-0.776866	-1.377633
C	3.175752	1.365249	-0.116543
O	3.703015	1.847977	-1.090902
C	3.063825	2.12683	1.127192
C	2.970499	2.749911	2.163348
H	0.886343	0.526914	1.162024
H	0.698023	-1.017452	0.298221
H	0.553026	0.518271	-0.589005
H	3.098021	-0.545029	0.762785
H	2.440693	-0.273098	-2.234663
H	2.534945	-1.808975	-1.3313
H	3.992898	-0.805328	-1.57197
H	2.895696	3.313287	3.07648
