16

C	0.726668	0.111506	0.055443
C	2.202297	-0.007332	0.244109
C	3.110235	0.882772	-0.167568
C	4.593992	0.749786	0.020078
C	5.316736	0.642557	-1.285538
N	6.158902	1.53181	-1.627274
O	6.716092	1.285069	-2.852918
H	0.327627	-0.744737	-0.51458
H	0.456407	1.033604	-0.480645
H	0.19965	0.112438	1.024154
H	2.556179	-0.904555	0.770879
H	2.774395	1.781819	-0.701104
H	4.81071	-0.143743	0.631564
H	4.999956	1.624885	0.554554
H	5.095545	-0.204078	-1.955763
H	7.319331	2.02528	-2.975049
