13

C	1.628562	-0.330581	0.062455
O	0.913363	-1.564607	0.131838
C	-0.174349	-1.031621	-0.638656
C	-1.354029	-0.540839	0.144711
C	-1.243734	0.788805	0.26497
O	-0.172413	1.352397	-0.345376
C	0.593973	0.285063	-0.880749
H	2.64705	-0.458702	-0.343581
H	1.688829	0.194923	1.032468
H	-0.424118	-1.697806	-1.482395
H	-2.159939	-1.154355	0.542782
H	-1.902474	1.497967	0.769541
H	0.926679	0.554214	-1.891769
