15

C	0.963826	-0.008467	-0.011208
C	2.505816	-0.021819	0.00899
C	3.01226	-0.72956	1.282642
C	3.00498	-0.734642	-1.179524
C	3.40352	-1.343962	-2.146426
C	3.009173	1.362759	-0.0142
C	3.413427	2.503695	-0.005029
H	0.589056	0.493348	-0.913755
H	0.583475	0.525479	0.87203
H	0.581309	-1.039573	0.002406
H	2.645118	-0.200224	2.174144
H	4.110409	-0.745751	1.309599
H	2.643148	-1.765117	1.30492
H	3.757529	-1.875865	-3.009949
H	3.774282	3.5155	-0.00504
