16

C	3.769931	-1.937062	-0.865802
C	4.199277	-0.893693	0.136069
O	4.174335	0.367874	-0.498391
C	4.345307	1.459223	0.317311
O	5.678394	1.665835	0.727667
N	5.951052	1.019755	1.897685
C	7.166822	1.132368	2.24461
H	3.77987	-2.938445	-0.410215
H	4.448765	-1.941068	-1.731314
H	2.753646	-1.728527	-1.231503
H	5.211625	-1.113549	0.519493
H	3.525023	-0.884954	1.015489
H	3.713988	1.399075	1.225525
H	4.09272	2.346178	-0.28032
H	7.459346	0.651266	3.181025
H	7.903189	1.686992	1.64632
