12

C	0.96993	-0.121249	-0.072177
C	2.474796	0.07592	0.08474
C	2.874227	1.512966	0.057608
N	3.450336	2.04272	1.059725
O	3.734744	3.368216	0.86243
H	0.710147	-1.190308	-0.080764
H	0.601217	0.318102	-1.013014
H	0.420703	0.355045	0.754355
H	3.001333	-0.452579	-0.730366
H	2.831408	-0.359827	1.030894
H	2.652332	2.122349	-0.835352
H	4.158868	3.627785	1.68664
