14

N	0.830877	0.64374	-0.625864
C	1.329978	-0.644061	-0.280557
C	2.284714	-1.326826	-1.230983
C	2.786323	-0.732447	0.034959
O	3.205416	-1.633981	1.031014
C	3.081858	-1.199774	2.288063
O	2.651861	-0.133859	2.620019
H	0.619838	1.17719	0.215338
H	-0.024933	0.574069	-1.171537
H	0.705286	-1.335435	0.308754
H	2.531012	-0.80539	-2.158184
H	2.245487	-2.417461	-1.287919
H	3.356718	0.200153	0.004412
H	3.445824	-1.987788	2.980695
