15

C	1.934333	-0.629279	0.028158
C	3.042537	0.033393	-0.748951
O	4.133226	0.252832	0.13394
C	5.226005	0.827635	-0.339417
C	5.479538	1.254278	-1.596568
C	6.76725	1.866766	-1.897098
O	7.100779	2.282063	-2.982044
H	1.069683	-0.810195	-0.626353
H	1.611226	0.007343	0.864467
H	2.268348	-1.593577	0.436991
H	2.717039	1.001679	-1.169949
H	3.379211	-0.597715	-1.59136
H	5.983086	0.940101	0.446464
H	4.767007	1.168382	-2.419784
H	7.465562	1.934184	-1.017806
