19

C	2.089798	-0.749686	0.922725
C	2.248439	0.216229	-0.248127
C	3.241022	1.326827	0.038513
N	2.909136	2.546649	0.253455
N	4.567364	0.960771	0.160261
C	5.123082	-0.171394	-0.535898
C	5.511287	2.001648	0.490129
H	1.340898	-1.524534	0.700162
H	1.764734	-0.210776	1.825417
H	3.037081	-1.252143	1.168726
H	1.28318	0.69357	-0.472273
H	2.526454	-0.332953	-1.162901
H	1.895083	2.64217	0.211803
H	4.432411	-1.023417	-0.550874
H	6.036344	-0.504924	-0.019736
H	5.400465	0.060903	-1.583921
H	5.059247	2.685589	1.2189
H	5.796339	2.608115	-0.391196
H	6.420914	1.548249	0.912096
