15

C	1.018062	0.063755	0.114086
C	2.501623	-0.034977	-0.171114
O	2.737491	-1.145183	-1.059795
C	3.336728	-0.663829	-2.159582
C	3.576816	0.662077	-2.147142
C	3.085346	1.17731	-0.880402
C	3.106132	2.432435	-0.404767
H	0.824807	0.898142	0.804489
H	0.645555	-0.866457	0.567202
H	0.466079	0.251314	-0.818504
H	3.058253	-0.251715	0.757052
H	3.556722	-1.405593	-2.929368
H	4.047423	1.240853	-2.938947
H	2.703477	2.677614	0.580763
H	3.534395	3.247937	-0.99124
