20

C	1.238882	-0.747796	0.066585
C	2.724743	-0.731539	-0.22183
O	2.934343	-0.53632	-1.591991
C	3.449529	0.377876	0.542761
N	4.800568	0.543946	0.036754
C	5.332981	1.869933	0.244734
C	5.71124	-0.483827	0.488203
H	1.04179	-0.921054	1.13575
H	0.751403	-1.546717	-0.51011
H	0.783599	0.209897	-0.230468
H	3.144898	-1.711451	0.099074
H	3.813992	-0.120671	-1.631051
H	3.421944	0.187709	1.638284
H	2.905823	1.319812	0.361543
H	4.65837	2.622145	-0.190458
H	6.309623	1.965755	-0.254306
H	5.477807	2.118694	1.318904
H	5.326825	-1.482281	0.234152
H	5.882885	-0.452564	1.586825
H	6.685374	-0.369986	-0.010636
