17

C	1.023639	-0.146987	-0.156437
C	2.516497	0.011846	0.094875
C	2.972276	1.398715	0.103423
C	3.279399	2.575212	0.118275
C	3.802173	3.908713	0.096571
C	5.290992	3.995949	-0.149607
C	3.020039	4.990022	0.246778
H	0.740528	-1.209756	-0.154319
H	0.741484	0.283858	-1.128444
H	0.438839	0.369489	0.618691
H	3.105872	-0.536148	-0.662048
H	2.803822	-0.444822	1.059753
H	5.818015	3.145273	0.301374
H	5.706413	4.932514	0.250896
H	5.502524	3.983575	-1.23141
H	1.94348	4.894305	0.398935
H	3.462397	5.989392	0.221873
