17

C	0.944152	-0.002055	-0.017673
C	2.398559	-0.000967	0.006805
C	3.612054	-0.000306	0.025971
C	5.063463	0.009072	0.06213
C	5.805907	1.068523	0.918626
C	6.849709	-0.007715	1.269556
C	5.822036	-1.080637	0.86498
H	0.54364	1.022994	0.028689
H	0.52875	-0.560134	0.836618
H	0.559253	-0.467622	-0.939098
H	5.454917	0.037693	-0.96981
H	5.200696	1.350983	1.793077
H	6.140946	1.985326	0.410756
H	7.706073	0.016173	0.577614
H	7.237585	-0.030546	2.298511
H	6.170238	-1.966141	0.31229
H	5.221471	-1.41456	1.724298
