15

C	0.964156	0.013453	-0.10565
C	2.484002	-0.033162	0.005512
C	3.149501	-1.25994	-0.560829
C	4.058905	-0.873271	-1.466398
N	4.094669	0.516091	-1.583805
C	3.149621	1.108167	-0.761632
N	2.833732	2.333144	-0.63044
H	0.600828	0.996292	0.227444
H	0.497074	-0.769	0.510899
H	0.646727	-0.13458	-1.149095
H	2.760432	0.091338	1.069895
H	2.933463	-2.285361	-0.267009
H	4.733261	-1.484094	-2.067428
H	4.651145	1.021128	-2.258234
H	3.391824	2.935505	-1.239978
