15

C	0.979237	9.8e-05	0.066013
C	2.481577	-0.031247	0.019793
C	3.19635	-0.683349	-1.110215
O	2.41999	-1.253998	-2.097778
C	3.229272	0.834026	-0.986665
C	4.436371	1.519948	-0.626593
C	5.464793	2.082569	-0.313617
H	0.619862	0.881579	0.618785
H	0.588175	-0.898455	0.568294
H	0.553514	0.022078	-0.946501
H	2.98018	-0.118427	0.990806
H	4.136288	-1.202273	-0.875968
H	2.902995	-1.196661	-2.929038
H	2.584757	1.349128	-1.709299
H	6.374308	2.583083	-0.038528
