18

C	0.77828	0.286739	-0.504216
C	2.188666	0.020118	-0.036763
C	2.430472	0.153013	1.454564
C	1.664416	-0.85331	2.30248
O	1.995474	-2.183155	2.005153
C	3.038949	-0.941414	-0.792525
N	3.223225	0.494273	-0.943861
H	0.726845	0.236013	-1.600879
H	0.453836	1.293972	-0.196754
H	0.063574	-0.441152	-0.088293
H	2.156924	1.175008	1.774324
H	3.509425	0.030607	1.654347
H	0.573767	-0.671552	2.208121
H	1.91285	-0.697833	3.364365
H	1.814009	-2.327974	1.070297
H	2.636533	-1.457872	-1.672105
H	3.781885	-1.51794	-0.228591
H	4.0422	0.805309	-0.421614
