21

C	1.280279	-0.304237	1.17143
C	2.72778	-0.354287	0.691055
C	2.901832	-1.466953	-0.338071
C	3.189254	1.022263	0.163192
N	3.02582	2.110935	1.12181
C	4.643825	1.032314	-0.310821
N	5.549313	0.802696	0.801197
H	1.131024	0.446112	1.96235
H	0.963503	-1.276554	1.57933
H	0.597014	-0.057398	0.340088
H	3.381088	-0.586113	1.552425
H	2.374546	-1.226171	-1.277306
H	2.487238	-2.415785	0.036447
H	3.958502	-1.649292	-0.579428
H	2.567425	1.269319	-0.718639
H	3.317193	1.796723	2.047259
H	2.049656	2.37806	1.210987
H	4.809271	1.998986	-0.829392
H	4.797375	0.242565	-1.062693
H	5.593799	1.646609	1.370556
H	6.495444	0.64126	0.466025
