17

C	0.83884	-0.269972	-0.031109
C	2.358332	-0.134228	0.02872
N	3.075085	-1.119019	-0.767243
C	2.821998	1.265626	-0.394716
C	2.346865	2.362726	0.501614
C	1.587053	3.396091	0.134162
H	0.33221	0.47404	0.602659
H	0.519929	-1.27237	0.296172
H	0.482608	-0.124191	-1.065638
H	2.676853	-0.280477	1.078401
H	2.788675	-1.038325	-1.743678
H	2.80694	-2.059127	-0.480868
H	2.493017	1.457046	-1.432414
H	3.92543	1.244456	-0.409299
H	2.661201	2.287073	1.551598
H	1.246135	3.513028	-0.9
H	1.280448	4.165662	0.84762
