19

C	0.975097	-0.105583	0.000974
C	2.477473	0.031801	0.036469
C	3.146963	1.114059	0.943036
N	2.445444	1.548111	2.122146
C	4.180876	0.014332	1.242698
N	3.211665	-0.978842	0.795783
C	3.657194	-2.176697	0.150328
H	0.677104	-1.045159	-0.490437
H	0.51487	0.72238	-0.561514
H	0.557175	-0.114406	1.018636
H	2.872764	0.127999	-1.001206
H	3.527307	1.99484	0.403239
H	2.096068	0.740864	2.636693
H	1.636604	2.116077	1.877597
H	5.073772	0.087841	0.585369
H	4.517095	-0.074805	2.290273
H	2.792879	-2.769151	-0.18948
H	4.226491	-2.801986	0.857087
H	4.307449	-1.981624	-0.733931
