13

N	1.758287	-0.344086	-1.132572
C	2.748995	-0.086146	-0.10848
C	3.097533	1.372125	-0.041603
C	2.297599	2.395858	-0.489596
S	3.070705	3.88944	-0.192691
N	4.418644	3.224369	0.501872
C	4.295432	1.918118	0.509936
H	1.448244	-1.311752	-1.097909
H	2.162454	-0.196286	-2.055992
H	3.691351	-0.665325	-0.21049
H	2.321991	-0.388954	0.864695
H	1.320035	2.294873	-0.960533
H	5.10972	1.319416	0.932554
