15

C	1.160773	-0.48372	-0.154464
N	2.545359	-0.12641	-0.257745
C	2.968672	0.991289	0.188308
N	2.181174	1.978743	0.795011
O	1.042512	2.349362	0.086333
C	4.423263	1.237521	0.138412
C	5.046667	2.408492	0.306043
H	1.058329	-1.575353	-0.2528
H	0.556536	-0.021328	-0.953281
H	0.709405	-0.184908	0.813541
H	2.695818	2.820837	1.032986
H	0.306474	2.090385	0.653741
H	4.994096	0.331958	-0.084068
H	4.515695	3.347343	0.493128
H	6.135036	2.480489	0.240384
