13

N	0.89411	0.32193	-0.877497
C	2.009279	0.241671	-0.566446
C	3.372692	0.122666	-0.169091
C	4.350422	0.89872	-0.666228
C	5.765116	0.776117	-0.288963
C	6.845776	0.869875	-1.315618
N	6.578021	1.979274	-0.434122
H	3.593498	-0.648481	0.57717
H	4.117608	1.673078	-1.40523
H	5.965096	0.107242	0.558242
H	6.582375	1.024008	-2.368271
H	7.731976	0.243559	-1.155715
H	7.26419	2.045252	0.315689
