17

C	3.055766	-1.052004	-0.533704
C	2.491588	0.19343	0.122991
N	3.455869	1.270972	0.106469
C	3.494315	2.113049	-1.066408
C	2.973348	2.623801	0.229467
C	3.742983	3.569525	1.106805
H	2.336345	-1.883945	-0.490932
H	3.983528	-1.363812	-0.032053
H	3.293976	-0.862608	-1.592326
H	2.239806	-0.015686	1.176288
H	1.538547	0.483317	-0.375756
H	2.76139	1.924974	-1.863883
H	4.487631	2.410911	-1.421542
H	1.878493	2.742828	0.266141
H	4.822964	3.381061	1.015639
H	3.464384	3.438652	2.164946
H	3.543578	4.617265	0.830417
