14

C	1.025101	-0.018062	-0.082255
C	2.523943	0.050018	0.008675
N	3.359267	-0.622139	-0.978098
C	3.318033	0.8365	-0.963656
C	4.584977	1.553232	-0.594261
H	0.550964	0.762446	0.533275
H	0.649612	-0.99292	0.268909
H	0.683751	0.120155	-1.121212
H	2.921984	-0.027697	1.030125
H	2.783384	-0.99086	-1.734975
H	2.72915	1.322119	-1.755603
H	5.111158	1.009767	0.2041
H	4.375146	2.576138	-0.244085
H	5.26462	1.621023	-1.458859
