14

C	0.986501	0.015839	0.047873
C	2.46883	0.032074	-0.058075
C	3.310436	-1.004109	-0.152628
O	4.628113	-0.68897	-0.197658
C	4.704218	0.733962	-0.321225
C	3.312245	1.282284	0.025262
H	0.58884	-1.008673	0.006926
H	0.513583	0.59342	-0.765331
H	0.64612	0.471582	0.994719
H	3.08796	-2.072486	-0.182927
H	4.977565	0.972608	-1.364268
H	5.507582	1.096867	0.33577
H	2.990997	2.069132	-0.677131
H	3.263651	1.722761	1.039303
