16

C	0.806863	-1.237922	0.734757
C	-0.247773	-1.263063	-0.32813
C	-1.506348	-0.510183	-0.11722
C	-1.505318	0.795881	0.182486
C	-0.219353	1.548544	0.337366
C	0.890732	0.928868	-0.524104
N	0.987434	-0.517658	-0.494517
H	1.458066	-2.107314	0.882573
H	0.558798	-0.692421	1.654924
H	-0.329896	-2.162348	-0.951426
H	-2.446444	-1.055191	-0.239904
H	-2.451107	1.327581	0.324083
H	0.086077	1.558765	1.399986
H	-0.347481	2.608568	0.063724
H	1.871367	1.342543	-0.241794
H	0.719282	1.206929	-1.576985
