17

C	0.914957	-0.320807	0.278846
N	2.196684	-0.328316	-0.382489
C	2.350685	-1.454978	-1.265733
C	2.506473	0.931265	-1.022349
C	2.720064	2.023388	-0.02544
N	2.083254	3.118911	-0.129762
O	2.421434	4.018209	0.842833
H	0.84786	0.528062	0.975987
H	0.785843	-1.245997	0.861899
H	0.058162	-0.240471	-0.429287
H	2.198111	-2.393172	-0.709463
H	3.369259	-1.477152	-1.683168
H	1.63431	-1.451272	-2.11958
H	1.733306	1.262458	-1.751805
H	3.44522	0.798502	-1.589704
H	3.438871	1.858577	0.793242
H	1.868667	4.780892	0.643471
