14

C	0.952827	-0.15825	0.358487
N	2.335019	-0.306461	-0.065733
C	2.860999	-1.578695	-0.205078
O	2.24935	-2.593911	0.004585
C	3.050302	0.871457	-0.311399
C	4.489455	0.763819	-0.753433
O	2.501985	1.937475	-0.16476
H	0.903011	0.418558	1.29211
H	0.540102	-1.161827	0.506683
H	0.377679	0.383092	-0.405236
H	3.92006	-1.580806	-0.536064
H	5.110409	0.249637	-0.004797
H	4.860141	1.786309	-0.886069
H	4.584242	0.221183	-1.705695
