12

C	1.114138	0.480995	-0.234466
C	2.533668	0.38029	0.235383
N	3.05189	-0.641871	0.814228
N	2.286134	-1.675753	1.116955
C	2.392032	-2.787112	0.511482
C	3.409574	1.504193	0.024093
N	4.070231	2.434779	-0.177632
H	0.778285	1.52548	-0.268562
H	0.469936	-0.102497	0.4406
H	1.008015	0.058531	-1.246937
H	1.779036	-3.622259	0.863627
H	3.072161	-2.941056	-0.34109
