13

C	0.991205	-0.038617	-0.007064
C	2.460432	0.104718	0.000571
C	3.293592	1.159841	0.004839
N	4.585823	0.652877	0.010831
C	4.546923	-0.720938	0.010831
N	5.535721	-1.51058	0.016076
O	3.214117	-1.050492	0.004024
H	0.514552	0.950211	-0.007637
H	0.641514	-0.594592	0.878144
H	0.65023	-0.591366	-0.897697
H	3.074504	2.223796	0.003839
H	5.45151	1.169305	0.016906
H	5.222088	-2.479142	0.014677
