13

C	0.909418	0.037433	0.180249
C	2.23046	0.071973	-0.043453
C	3.124774	1.232289	0.050924
N	4.336855	0.990336	-0.290779
N	4.437088	-0.33107	-0.769182
C	4.365746	-1.290224	0.3179
C	3.148956	-0.998952	-0.499129
H	0.336807	-0.88837	0.088858
H	0.366986	0.943222	0.461675
H	2.837505	2.222808	0.415671
H	4.895806	-2.233939	0.15639
H	4.412838	-0.887745	1.335607
H	2.809012	-1.736911	-1.231401
