17

N	1.140992	0.021231	0.560471
C	2.324127	0.036753	0.076833
C	3.066639	-1.272185	-0.064989
C	4.060781	-1.293729	-1.21793
C	4.964541	-0.072534	-1.139736
C	4.129191	1.192605	-1.213713
N	3.047786	1.167217	-0.247345
H	0.764049	0.971145	0.641613
H	2.312628	-2.066788	-0.13755
H	3.607338	-1.433135	0.884924
H	4.650511	-2.223333	-1.194548
H	3.520357	-1.288908	-2.181528
H	5.523749	-0.088203	-0.188182
H	5.706801	-0.065312	-1.95354
H	4.755705	2.07754	-1.016382
H	3.739478	1.303412	-2.247531
H	2.521395	2.030413	-0.172635
