13

N	1.052793	0.019119	-2e-06
C	2.419702	-0.091372	1e-06
N	3.116801	-1.165233	3e-06
C	3.103113	1.185001	-0.0
C	3.654825	2.269551	-1e-06
C	4.357385	3.504829	-2e-06
C	3.77672	4.714362	2e-06
H	0.606477	0.923137	-4e-06
H	0.474372	-0.808104	-2e-06
H	2.509952	-1.990331	4e-06
H	5.4519	3.42915	-6e-06
H	2.689294	4.826952	6e-06
H	4.381117	5.624169	1e-06
