16

C	0.990179	-0.038612	-0.030543
C	2.491899	-0.012531	0.03728
C	3.334076	-0.733518	-1.008618
N	2.797009	-1.455515	-2.118808
C	3.312524	0.756571	-0.977979
N	4.495067	1.500375	-0.671868
H	0.544595	0.847752	0.448736
H	0.575577	-0.92936	0.470073
H	0.638102	-0.059954	-1.073266
H	2.914371	-0.025539	1.050204
H	4.256033	-1.184423	-0.615901
H	2.213069	-0.868993	-2.706366
H	2.23031	-2.24305	-1.812049
H	2.717207	1.2172	-1.780368
H	5.150285	0.932959	-0.140113
H	4.271236	2.309158	-0.094974
