18

C	0.940845	-0.045751	-0.057291
C	2.446054	0.01593	0.039064
C	3.142258	1.070993	0.962607
N	2.434795	1.510311	2.142873
C	4.211458	0.004213	1.278617
C	3.213989	-1.074504	0.812457
O	3.652778	-2.221221	0.15868
H	0.61769	-0.97111	-0.5594
H	0.52819	0.804911	-0.623548
H	0.480814	-0.035012	0.943987
H	2.893708	0.091331	-0.969604
H	3.509086	1.96655	0.435529
H	2.101786	0.722322	2.695191
H	1.613252	2.056222	1.890293
H	5.065838	0.07104	0.585681
H	4.593953	-0.03249	2.309774
H	2.607935	-1.431355	1.663231
H	4.17696	-1.94478	-0.601042
