13

C	0.992205	-0.042013	-0.116544
C	2.512032	-0.002791	0.021856
O	2.825804	-0.677491	1.222471
C	3.096654	-0.818963	-1.146356
O	3.619103	-0.37772	-2.126754
C	3.023396	1.370931	0.009986
C	3.471586	2.495016	0.008579
H	0.667715	0.462828	-1.036461
H	0.54418	0.456435	0.754177
H	0.652893	-1.088607	-0.130322
H	3.752521	-0.507543	1.428256
H	2.964921	-1.91991	-0.969223
H	3.869939	3.493168	0.002805
