15

C	-0.221965	-0.460892	0.157628
C	1.142845	0.070012	0.436765
C	1.88986	0.774497	-0.4176
C	3.23029	1.328829	-0.089549
O	4.174342	0.846077	-1.056016
C	5.412505	1.31363	-0.943762
O	5.794451	2.085735	-0.111093
H	-0.252715	-1.556061	0.285416
H	-0.551768	-0.223348	-0.864359
H	-0.960698	-0.043753	0.862081
H	1.552511	-0.13913	1.434378
H	1.512052	0.99195	-1.424271
H	3.558459	1.037937	0.921336
H	3.235824	2.43258	-0.123647
H	6.044517	0.875506	-1.745597
