19

C	0.953446	2.385372	1.70684
C	2.455037	2.273771	1.616297
O	2.793538	1.746029	0.353675
C	4.159574	1.661142	0.12295
O	4.785206	2.896275	0.025328
C	4.411983	3.642273	-1.111395
C	5.080608	4.992948	-1.043573
H	0.651419	2.777022	2.689523
H	0.482473	1.401367	1.564754
H	0.568469	3.062528	0.929831
H	2.847682	1.612807	2.416431
H	2.93344	3.260512	1.757439
H	4.267653	1.081956	-0.813999
H	4.673342	1.132029	0.948573
H	3.312337	3.748454	-1.153401
H	4.715652	3.100745	-2.031601
H	4.759119	5.537775	-0.142883
H	4.824088	5.598456	-1.926027
H	6.174324	4.880799	-1.00136
