12

N	0.966444	0.003217	-0.001838
C	2.126308	-0.006747	-0.000381
C	3.552351	-0.00279	0.001367
C	4.351957	-1.099946	0.005976
C	5.772869	-0.651438	0.006297
C	5.680346	0.839995	0.001311
C	4.384439	1.209493	-0.001535
H	4.020354	-2.137977	0.009019
H	6.323761	-1.041115	-0.871174
H	6.321525	-1.035347	0.887709
H	6.542893	1.506893	0.00021
H	3.986263	2.224302	-0.005379
