20

C	0.924038	0.001537	-0.016754
C	2.43345	0.001948	0.076354
C	3.160927	1.0236	0.970029
C	4.207683	-0.057509	1.295031
C	3.203934	-1.138525	0.830381
C	2.416374	-1.718603	1.994948
N	3.782774	-2.227586	0.080197
H	0.556001	-0.878092	-0.570515
H	0.556904	0.897581	-0.542819
H	0.454347	-0.0099	0.979044
H	2.863463	0.053834	-0.940764
H	2.557156	1.297408	1.850192
H	3.514244	1.953175	0.499073
H	5.071305	-0.009155	0.613135
H	4.585538	-0.133714	2.326487
H	2.009182	-0.932259	2.647435
H	3.074789	-2.364775	2.594456
H	1.569039	-2.327545	1.638329
H	4.244399	-1.877926	-0.757449
H	3.058493	-2.872918	-0.232457
