15

C	2.463503	-1.230926	0.794639
C	2.114363	-0.017655	0.344373
C	3.027333	1.094733	0.08006
C	2.603119	2.245553	-0.468001
C	4.466009	0.921412	0.435716
C	5.486521	0.675772	-0.592103
O	5.359653	1.931565	0.034584
H	1.713422	-2.007405	0.9619
H	3.502029	-1.498277	1.008187
H	1.057552	0.186422	0.137454
H	1.554845	2.387113	-0.74305
H	3.306365	3.060018	-0.654869
H	4.652754	0.524342	1.444258
H	5.170916	0.634502	-1.642884
H	6.390195	0.103241	-0.343283
