17

C	1.03489	-0.034	0.070127
C	2.542608	0.07327	-0.157743
C	2.948131	-0.719964	-1.411901
C	4.435058	-0.814719	-1.619554
O	5.025072	-1.838974	-1.84071
C	2.95834	1.513935	-0.258002
C	3.776257	2.147876	0.582978
H	0.737335	0.498494	0.985625
H	0.722494	-1.085212	0.16556
H	0.477415	0.406946	-0.772579
H	3.057232	-0.37428	0.711538
H	2.520816	-0.221527	-2.303833
H	2.546455	-1.744218	-1.384119
H	4.984645	0.160784	-1.553873
H	2.520188	2.071298	-1.098258
H	4.233402	1.630245	1.432871
H	4.020732	3.205707	0.455632
