18

C	0.934157	-0.087799	-0.071373
C	2.463167	-0.043471	0.063582
C	2.884371	-0.776036	1.33549
C	3.096296	-0.728839	-1.156585
C	2.894107	1.404999	0.06463
C	3.564724	2.058009	1.014514
H	0.597435	0.434501	-0.981257
H	0.446969	0.390713	0.79232
H	0.579438	-1.129405	-0.132359
H	2.435008	-0.318776	2.230497
H	3.978236	-0.767849	1.461208
H	2.557849	-1.82661	1.29519
H	2.811947	-0.220722	-2.091941
H	2.762435	-1.776521	-1.23003
H	4.195278	-0.721566	-1.087499
H	2.605741	1.958427	-0.840015
H	3.887262	1.5775	1.942096
H	3.821242	3.113915	0.895193
