13

C	1.000121	-0.001331	-0.005744
C	2.486993	0.03583	-0.0
N	3.226098	1.125324	0.005268
C	4.513087	0.703393	0.00829
O	5.499527	1.61849	0.013985
C	4.584685	-0.674166	0.004834
N	3.261935	-1.077111	-0.000313
H	0.627925	1.0298	0.002427
H	0.598185	-0.522413	0.878352
H	0.604755	-0.505524	-0.902564
H	6.346328	1.162435	0.016008
H	5.415859	-1.37394	0.005873
H	2.933973	-2.032958	-0.003857
