18

C	0.960792	-0.070455	0.010142
C	2.476394	0.038359	0.074532
C	3.015365	1.469001	0.085899
C	2.558727	2.276731	1.294465
C	4.540987	1.462442	-0.010126
O	5.108949	2.743675	-0.058432
H	0.638866	-1.120316	-0.059585
H	0.560085	0.458438	-0.870225
H	0.478332	0.360758	0.900529
H	2.914739	-0.498343	-0.785597
H	2.847804	-0.486533	0.974214
H	2.638518	1.973229	-0.828694
H	2.828959	1.758021	2.230244
H	1.47132	2.441342	1.300331
H	3.056396	3.256287	1.305011
H	4.850195	0.845619	-0.879736
H	4.960075	0.971399	0.885295
H	4.773328	3.186235	-0.845127
