22

C	0.948128	0.735865	0.127081
C	2.432728	0.56045	-0.150427
C	3.218044	1.864429	-0.095745
C	4.704323	1.69866	-0.379298
C	5.48786	3.001222	-0.315914
C	6.968585	2.839181	-0.619616
N	7.67039	4.100648	-0.479064
H	0.408117	-0.222121	0.082048
H	0.482111	1.41561	-0.604575
H	0.776942	1.166014	1.127388
H	2.572431	0.094485	-1.142576
H	2.864735	-0.152613	0.574368
H	3.085546	2.330191	0.898275
H	2.785857	2.581734	-0.81749
H	4.834767	1.236073	-1.375179
H	5.134151	0.978057	0.340283
H	5.386848	3.463579	0.681054
H	5.051102	3.72568	-1.029012
H	7.074117	2.362342	-1.620492
H	7.401348	2.120894	0.099318
H	7.330914	4.767693	-1.170613
H	8.663107	3.981016	-0.668194
