15

N	4.372401	-1.380646	-0.219573
C	3.228398	-0.624989	-0.362588
N	2.0697	-1.052918	-0.704259
C	3.369038	0.831946	-0.155439
C	4.514835	1.514102	-0.039057
C	4.598883	2.995349	0.155843
O	5.366912	3.341093	1.281558
H	5.094605	-1.030759	0.39639
H	4.259831	-2.385998	-0.200874
H	2.072347	-2.069181	-0.83366
H	2.407045	1.353541	-0.141178
H	5.483707	1.000251	-0.08377
H	3.57981	3.42888	0.188736
H	5.109571	3.451533	-0.70917
H	4.939907	2.953346	2.05307
