18

C	-1.254026	-0.774849	-0.536666
C	-1.256145	0.77407	-0.531832
C	-0.005663	1.085666	0.321822
C	1.249746	0.777704	-0.506257
C	1.251816	-0.772305	-0.510698
C	-0.002877	-1.088305	0.315395
N	0.051891	-0.004159	1.302669
H	-1.199692	-1.207428	-1.547194
H	-2.15839	-1.183917	-0.058918
H	-2.161441	1.177598	-0.051112
H	-1.203537	1.213237	-1.5396
H	-0.007624	2.082731	0.784792
H	2.143988	1.176269	-0.006527
H	1.200939	1.218278	-1.512709
H	2.146997	-1.171283	-0.012996
H	1.20436	-1.207229	-1.519661
H	-0.002388	-2.088091	0.772464
H	-0.784804	-0.006976	1.887468
