16

N	0.998823	-0.026898	0.066269
C	2.454439	-0.01511	-0.056281
C	3.048606	-1.271328	0.596519
C	3.311873	-0.890401	2.062882
O	4.382995	-1.570381	2.663904
C	3.470888	0.607693	1.976491
C	3.02351	1.08409	0.812987
H	0.601938	-0.697291	-0.590431
H	0.614907	0.880772	-0.191418
H	2.799228	0.091186	-1.10722
H	4.022676	-1.501089	0.132081
H	2.406034	-2.157068	0.484179
H	2.432163	-1.12353	2.688116
H	5.181639	-1.341259	2.174801
H	3.866217	1.197711	2.807871
H	2.987383	2.140074	0.528738
