13

C	2.479834	-1.103834	0.089551
C	2.177999	0.19642	0.104066
N	2.972509	1.299198	-0.265729
C	2.37505	2.588605	-0.164651
N	2.863381	3.715923	-0.433118
C	4.274242	1.137745	-0.706415
O	5.008102	2.034189	-1.042161
H	1.720886	-1.814318	0.418758
H	3.437396	-1.516991	-0.23031
H	1.185898	0.509498	0.440972
H	1.340797	2.510688	0.207656
H	3.827882	3.635059	-0.767214
H	4.594285	0.075258	-0.723075
