19

C	0.915023	-0.013145	0.074081
C	2.45384	0.044729	0.064061
C	2.994968	-0.737968	1.265615
C	2.945961	-0.629923	-1.201628
C	3.855905	-0.163614	-2.056922
C	2.863003	1.497416	0.083527
C	3.632365	2.11305	0.981714
H	0.490164	0.533628	-0.781849
H	0.516392	0.432112	0.998596
H	0.564014	-1.055933	0.016794
H	2.615988	-0.318545	2.210716
H	4.094602	-0.72052	1.289507
H	2.675886	-1.789978	1.212024
H	2.498142	-1.615164	-1.389306
H	4.342121	0.804951	-1.908732
H	4.152826	-0.742901	-2.935115
H	2.453595	2.086348	-0.747616
H	4.077297	1.588056	1.831136
H	3.848447	3.181501	0.898244
