20

C	2.076202	-0.668442	-1.273635
N	1.852906	0.420804	-0.354189
C	3.028448	1.136153	0.059852
C	3.804304	0.41128	1.134556
C	3.789166	1.969751	-0.955256
C	2.926101	2.634563	0.086465
C	3.509286	3.490058	1.179631
H	2.617259	-0.384864	-2.202252
H	1.112212	-1.112492	-1.563821
H	2.660958	-1.467781	-0.790223
H	1.155336	1.062146	-0.717189
H	4.722945	0.943952	1.415054
H	4.104531	-0.589089	0.786609
H	3.179605	0.282451	2.031592
H	3.437319	1.961763	-1.991512
H	4.875971	2.059491	-0.849597
H	1.968939	3.017319	-0.291792
H	4.49335	3.12555	1.506938
H	2.85244	3.518736	2.063799
H	3.646952	4.525383	0.829601
