15

C	1.025717	-0.085376	-0.007962
C	2.491897	0.126466	0.000489
C	3.281699	1.239493	0.005365
C	4.634867	0.774347	0.012369
C	4.572416	-0.589619	0.011216
C	5.596914	-1.665767	0.014531
O	3.27394	-0.979766	0.00417
H	0.507738	0.882119	-0.003711
H	0.696449	-0.658064	0.87446
H	0.70439	-0.645606	-0.901324
H	2.93452	2.270747	0.004343
H	5.54143	1.376176	0.017774
H	5.10107	-2.645637	0.028613
H	6.252084	-1.602335	0.897569
H	6.23872	-1.621707	-0.879632
