13

C	0.994503	-0.96739	-0.016998
C	-0.44132	-1.37029	-0.235982
C	-1.280497	-0.350082	-0.005437
C	-0.531215	0.903276	0.296647
N	0.350548	1.393056	-0.76219
C	0.915187	0.527695	0.251465
H	1.427735	-1.500473	0.847716
H	1.642095	-1.206514	-0.880195
H	-0.737628	-2.370102	-0.56239
H	-2.370237	-0.398457	-0.070214
H	-0.949886	1.66437	0.963343
H	0.171938	0.883239	-1.629135
H	1.666559	0.992651	0.898288
