19

C	0.864437	0.052996	0.069311
C	2.371259	-0.059908	0.059711
C	3.211437	0.907347	0.899137
O	3.987215	-0.153546	1.443222
C	3.102065	-1.151437	0.891821
C	2.2849	-1.793938	1.998319
C	3.875022	-2.17941	0.093664
H	0.393508	-0.815762	-0.417147
H	0.538543	0.950769	-0.479646
H	0.460405	0.127487	1.089932
H	2.734611	-0.091438	-0.980153
H	2.630327	1.444745	1.674999
H	3.825459	1.645368	0.354214
H	1.779387	-1.033246	2.610472
H	2.95115	-2.368172	2.660055
H	1.522791	-2.477547	1.592693
H	4.495275	-1.684802	-0.668026
H	3.189201	-2.88095	-0.407493
H	4.539838	-2.757577	0.754487
