18

C	1.239464	-0.156266	-0.340754
O	2.603637	0.152174	-0.305158
C	2.967628	1.438796	-0.097507
C	2.120315	2.467294	0.065524
C	4.45917	1.557637	-0.054205
C	5.0866	0.817423	1.124251
N	6.527726	0.975953	1.108476
H	1.159207	-1.238406	-0.507799
H	0.722739	0.374115	-1.161106
H	0.738472	0.100979	0.610461
H	1.035711	2.359041	0.038421
H	2.525202	3.46524	0.232001
H	4.755763	2.614853	-0.016767
H	4.863027	1.137041	-0.993382
H	4.732617	-0.233575	1.104067
H	4.695822	1.257426	2.057735
H	6.923243	0.495209	0.301714
H	6.942969	0.538847	1.927938
