14

C	0.937284	-0.413058	0.01447
C	2.319247	0.210847	0.091369
N	2.272123	1.668473	0.075933
C	2.282536	2.344079	-1.130405
O	2.34516	1.808875	-2.204622
C	2.165447	2.36686	1.264616
O	2.122857	1.852696	2.350012
H	1.018452	-1.510096	0.027688
H	0.427167	-0.120505	-0.915591
H	0.320602	-0.10688	0.872877
H	2.934366	-0.095669	-0.766168
H	2.828646	-0.079742	1.020772
H	2.230069	3.450551	-0.997863
H	2.126465	3.470509	1.106604
