14

N	1.117042	-0.19419	0.141982
C	1.906633	0.55521	-0.670272
O	1.752324	0.601546	-1.876663
C	2.984008	1.327814	0.018258
C	4.25053	1.594445	-0.764489
C	3.282674	2.697636	-0.518768
O	3.558553	3.664954	0.431004
H	1.217088	-0.18902	1.145925
H	0.346116	-0.698549	-0.275152
H	3.088863	1.22818	1.102454
H	4.289071	1.164915	-1.768592
H	5.182092	1.606285	-0.193094
H	2.660831	3.005987	-1.371404
H	4.175544	4.291827	0.03837
