17

C	0.825873	-0.240134	-0.198109
N	2.220716	-0.101758	0.149443
C	3.00463	-1.306116	0.256661
C	2.876522	1.093357	0.025915
N	4.140075	1.293014	0.084351
C	2.05504	2.35736	-0.19433
O	2.88024	3.458631	-0.248899
H	0.254969	0.648444	0.10003
H	0.395675	-1.094029	0.345501
H	0.663925	-0.408289	-1.280009
H	2.350217	-2.146353	0.524344
H	3.760672	-1.208789	1.05263
H	3.527609	-1.564092	-0.684654
H	4.703756	0.455244	0.202655
H	1.310674	2.444163	0.626099
H	1.470327	2.233777	-1.130964
H	3.776098	3.067791	-0.141883
