17

C	1.040808	-0.05571	0.140524
C	2.532684	0.025892	-0.010053
N	3.092997	1.166146	-0.164325
C	4.530838	1.198206	-0.30407
C	5.247952	0.017021	0.344568
C	4.613136	-1.28326	-0.125309
N	3.18379	-1.182904	0.040778
H	0.594947	-0.65132	-0.673033
H	0.626762	0.958	0.112507
H	0.766712	-0.534621	1.094752
H	4.787483	1.242398	-1.380716
H	4.905129	2.143783	0.123436
H	6.323914	0.025853	0.11058
H	5.147272	0.089093	1.440934
H	4.991774	-2.137562	0.459324
H	4.884933	-1.472772	-1.182568
H	2.6346	-2.026654	0.109121
