11

N	0.965794	0.155379	0.027544
C	2.312621	-0.019367	0.017541
C	3.006575	-1.197945	0.032375
C	2.393515	-2.513524	0.025442
O	3.010422	-3.553875	0.041874
C	3.071959	1.206892	0.008544
N	3.667295	2.200414	-0.010838
H	0.571869	1.074105	-0.107809
H	0.345145	-0.637399	-0.039345
H	4.096947	-1.162945	0.048811
H	1.268617	-2.534994	8e-05
