15

C	1.625582	-0.11099	-0.055936
C	0.710157	-1.171967	0.525847
O	-0.418314	-1.446902	-0.275541
C	-1.430264	-0.557564	-0.176161
C	-1.343181	0.730985	0.180882
C	-0.066391	1.512354	0.368835
O	0.979726	1.064895	-0.452028
H	2.11919	-0.501836	-0.959648
H	2.420382	0.091415	0.694779
H	1.273104	-2.113783	0.621423
H	0.367038	-0.887624	1.537768
H	-2.391309	-1.017151	-0.426799
H	-2.284198	1.281838	0.25829
H	0.244285	1.549819	1.43531
H	-0.252197	2.556981	0.07382
