17

O	2.922842	-0.396929	-1.422192
C	2.215295	0.057104	-0.29406
C	2.659946	1.454273	0.046253
C	1.774255	2.439228	0.227717
C	4.132223	1.609938	0.193091
C	4.769295	2.766161	0.894534
C	4.77896	1.414788	1.544295
H	2.785057	-1.344846	-1.503624
H	2.419687	-0.587141	0.587658
H	1.11994	0.048191	-0.460439
H	0.700883	2.264011	0.108986
H	2.086085	3.450784	0.498783
H	4.682529	1.178991	-0.649708
H	4.124065	3.532845	1.33101
H	5.705387	3.154706	0.485684
H	5.718416	0.857907	1.596091
H	4.112917	1.264758	2.399211
