17

C	1.029456	0.07684	-0.131535
C	2.53309	0.071923	-0.053973
C	3.376205	-0.620377	-1.098815
C	3.444462	0.870975	-0.967302
C	2.863024	1.738313	-2.055565
N	4.669873	1.425359	-0.450986
H	0.598321	0.946458	0.390825
H	0.607636	-0.830299	0.331015
H	0.673055	0.103149	-1.171652
H	2.922702	-0.01001	0.96905
H	2.86019	-1.028758	-1.974009
H	4.239861	-1.212901	-0.779811
H	1.955052	1.304509	-2.4951
H	3.607137	1.877747	-2.854114
H	2.600437	2.734868	-1.662395
H	5.123165	0.770901	0.182596
H	4.465754	2.26084	0.09722
