15

C	1.001041	0.040404	0.033409
C	2.485461	-0.02875	-0.004152
C	3.281129	-1.107999	-0.057535
C	4.698655	-0.701601	-0.075466
N	5.686223	-1.506658	-0.168743
N	4.673942	0.677147	0.032217
C	3.340838	1.21107	0.021197
H	0.551355	-0.960559	-0.01018
H	0.60862	0.631947	-0.810959
H	0.650586	0.534768	0.955298
H	2.980425	-2.154493	-0.091536
H	6.575003	-0.999208	-0.164289
H	5.493808	1.245616	-0.118529
H	3.134404	1.84571	-0.864852
H	3.11861	1.830168	0.913331
