12

C	0.917763	0.030237	-0.006948
C	2.399888	0.026524	-0.001392
C	3.299916	1.022922	0.004559
N	4.677657	0.579819	0.008184
C	4.661143	-0.69219	0.004653
C	3.227443	-1.221908	-0.001681
O	2.86491	-2.36824	-0.005722
H	0.514649	1.051973	-0.001343
H	0.522233	-0.506932	0.870237
H	0.528846	-0.494292	-0.894724
H	3.112058	2.098373	0.006992
H	5.559655	-1.317514	0.006125
