13

C	0.506617	0.628174	1.396191
C	1.336027	0.054613	0.522006
C	2.651239	0.687534	0.245535
O	3.046859	1.705446	0.774305
N	3.459599	0.052192	-0.682063
N	3.12184	-1.064966	-1.32562
C	3.933873	-1.565733	-2.167523
H	-0.468968	0.194894	1.628111
H	0.801217	1.555298	1.897078
H	1.089814	-0.869001	-0.004481
H	4.357967	0.512531	-0.850938
H	3.637226	-2.482663	-2.683182
H	4.917301	-1.12126	-2.399389
