14

C	1.043155	0.013768	0.248528
C	2.516102	-0.118375	-1.2e-05
C	3.070403	-1.259395	-0.45174
C	3.379859	1.028649	0.255154
C	2.961251	2.228291	0.712779
C	3.852943	3.313333	0.943823
N	4.569787	4.206057	1.13634
H	0.609011	0.816945	-0.368168
H	0.841044	0.269459	1.300993
H	0.51338	-0.919465	0.016133
H	2.465364	-2.145672	-0.658586
H	4.146498	-1.337502	-0.629675
H	4.447473	0.891054	0.054973
H	1.906228	2.421074	0.929736
