17

O	1.05439	-0.263218	0.12053
C	2.425605	-0.277146	-0.071339
C	2.903491	-0.599017	-1.447149
C	3.079722	0.792331	-0.895912
C	4.447372	1.320442	-0.522072
C	4.374726	2.39378	0.5199
C	4.893155	2.316641	1.746407
H	0.861655	0.402962	0.789049
H	3.018516	-0.676942	0.766333
H	2.126268	-0.744678	-2.20172
H	3.785757	-1.235626	-1.560838
H	2.381247	1.537073	-1.295128
H	4.941937	1.715755	-1.428388
H	5.078603	0.49058	-0.162243
H	3.82436	3.299994	0.233555
H	5.447635	1.431385	2.076617
H	4.789613	3.134215	2.465379
