12

N	1.164122	-0.114969	0.07364
C	2.504812	-0.061033	0.061549
C	3.131428	-1.417617	0.261256
O	2.431879	-2.390873	0.408491
C	3.249834	1.079262	-0.110257
C	4.70098	1.18246	-0.129527
O	5.517846	0.290349	-0.0043
H	0.589264	0.703817	-0.05311
H	0.741654	-1.026831	0.211792
H	4.238491	-1.445829	0.260456
H	2.714259	2.024517	-0.249248
H	5.0542	2.234769	-0.282192
