15

C	4.470313	3.644064	1.431602
C	5.716085	3.688691	0.946434
O	6.220318	3.021454	-0.105415
C	5.355788	2.170321	-0.813862
C	6.13196	1.554189	-1.941219
C	6.803179	0.266166	-1.780668
O	5.579396	0.375112	-2.477986
H	4.225528	4.251068	2.303538
H	3.677639	3.028224	1.004181
H	6.488993	4.316439	1.400738
H	4.491937	2.738474	-1.209396
H	4.9566	1.370156	-0.162771
H	6.533069	2.266179	-2.6769
H	6.756987	-0.2452	-0.809963
H	7.684027	0.034473	-2.392723
