15

C	2.890934	-1.082776	-0.479956
N	2.410495	0.124899	0.15411
C	3.361101	1.179534	0.192845
C	3.468424	2.063296	-1.004603
C	2.802307	2.584829	0.249249
C	3.450353	3.583378	1.054246
N	3.979652	4.383751	1.704216
H	2.099147	-1.84728	-0.473191
H	3.795815	-1.520623	-0.009067
H	3.137929	-0.875288	-1.5332
H	2.060794	-0.068829	1.089058
H	4.298386	1.026282	0.754452
H	2.799181	1.849286	-1.840948
H	4.446131	2.472398	-1.266435
H	1.710001	2.650513	0.225784
