16

C	1.028612	-0.237903	-0.96083
C	2.10213	-0.139022	-0.176789
C	2.91854	1.101686	0.004409
N	4.318972	0.835038	-0.235933
C	5.17612	1.978233	-0.011594
C	6.573297	1.688761	-0.320791
C	7.725817	1.451296	-0.604486
H	0.465214	-1.171133	-1.044757
H	0.667626	0.615759	-1.544665
H	2.453963	-1.010465	0.388134
H	2.819004	1.442485	1.053191
H	2.502858	1.922971	-0.622619
H	4.453612	0.477016	-1.179009
H	5.102257	2.271091	1.051835
H	4.873033	2.882304	-0.588952
H	8.748954	1.237522	-0.852974
