17

C	1.074383	-0.028791	-0.168396
N	2.490307	0.167466	-0.00083
C	3.33186	-1.008278	0.027576
C	3.89477	-1.398609	-1.33373
O	4.818906	-0.473336	-1.833269
C	3.018058	1.429766	0.134711
N	4.231569	1.811389	0.204914
H	0.562459	0.943436	-0.163186
H	0.648472	-0.642956	0.64565
H	0.833858	-0.525167	-1.1259
H	2.742796	-1.846379	0.437593
H	4.169534	-0.835888	0.725777
H	3.056365	-1.56961	-2.040468
H	4.426983	-2.359073	-1.236231
H	4.370961	0.370288	-1.96656
H	2.22917	2.199391	0.193243
H	4.891059	1.034762	0.105307
