18

C	1.346391	-0.187693	0.013787
N	2.755759	-0.386698	-0.238113
C	3.553551	0.83059	-0.172798
C	5.02406	0.526633	-0.288865
C	5.774344	1.051285	-1.262253
C	5.586063	-0.385458	0.776652
O	4.970578	-1.640484	0.815821
H	0.805126	-1.137528	-0.106603
H	0.874557	0.566762	-0.64927
H	1.197448	0.147111	1.052808
H	2.895667	-0.82622	-1.146716
H	3.36688	1.290443	0.816314
H	3.25036	1.583376	-0.930702
H	5.349975	1.724803	-2.014011
H	6.843785	0.832605	-1.336665
H	5.492865	0.146113	1.752472
H	6.665505	-0.532951	0.606188
H	4.018706	-1.473639	0.668245
