18

C	1.152702	-0.201472	-0.532385
N	2.58691	-0.059492	-0.541308
C	3.0787	0.970881	0.34058
C	4.580183	1.052445	0.296066
O	5.210377	1.69711	1.381707
C	5.428355	0.303907	1.222347
C	6.822868	-0.12729	0.881017
H	0.843988	-0.969606	-1.257408
H	0.592435	0.732138	-0.76282
H	0.815933	-0.538968	0.462094
H	2.912263	0.11341	-1.490005
H	2.780098	0.733932	1.376435
H	2.657701	1.981797	0.127306
H	5.005306	1.303288	-0.690117
H	4.910101	-0.31688	1.969349
H	7.253369	0.527744	0.10941
H	6.827041	-1.163274	0.508676
H	7.471838	-0.081919	1.769435
