17

C	0.944092	-0.208221	0.094091
C	2.460829	-0.114704	0.059265
C	2.967326	1.324618	-0.052106
C	4.45534	1.42591	-0.040025
C	5.196895	1.923437	-1.045493
C	6.617008	2.008152	-1.033113
C	7.828642	2.091043	-1.05009
H	0.605346	-1.252297	0.168892
H	0.495145	0.222225	-0.815755
H	0.528578	0.339588	0.955359
H	2.856767	-0.698512	-0.789327
H	2.885762	-0.579381	0.966568
H	2.560749	1.906721	0.796816
H	2.565318	1.792157	-0.967328
H	4.970663	1.049242	0.852477
H	4.695257	2.29892	-1.947038
H	8.900362	2.164592	-1.062042
