11

O	1.36542	0.365586	-1.021413
C	2.089302	0.259001	-0.064408
C	3.267982	1.155688	0.130429
N	3.715538	1.922969	-1.007831
C	2.965463	2.625923	0.002057
C	3.663962	3.583178	0.829599
N	4.200842	4.347919	1.512332
H	1.916435	-0.512588	0.723365
H	4.036872	0.836872	0.842486
H	3.093385	1.720356	-1.79617
H	1.918329	2.883446	-0.203685
