18

C	0.967146	-0.066935	0.000745
C	2.486591	-0.02614	0.01597
C	3.053953	1.386907	0.008876
C	4.57392	1.437528	0.019184
C	5.138042	2.848646	0.023908
O	6.538617	2.884094	-0.032699
H	0.586967	-1.09948	0.006697
H	0.562966	0.430863	-0.89572
H	0.544339	0.44818	0.878683
H	2.883407	-0.578432	-0.854505
H	2.864909	-0.56304	0.904435
H	2.659454	1.941541	0.880737
H	2.676295	1.926067	-0.879743
H	4.982065	0.904802	-0.857381
H	4.953579	0.896737	0.907703
H	4.744889	3.402049	0.903639
H	4.778189	3.393558	-0.865176
H	6.876903	2.425633	0.743337
