13

C	0.930703	0.034412	-0.090566
C	2.138827	-0.001918	-0.021664
C	3.608162	-0.032328	0.056842
O	4.085987	-1.189852	0.714622
C	4.705524	-0.849441	1.936524
C	4.776272	0.644924	1.938292
C	4.155167	1.121884	0.863088
H	-0.141857	0.062426	-0.152307
H	4.002364	-0.02742	-0.979126
H	5.703701	-1.323635	1.986004
H	4.122025	-1.231777	2.798868
H	5.253499	1.229862	2.72668
H	4.008536	2.165561	0.583204
