17

C	2.69877	-1.416567	-0.686044
C	2.030644	-0.113319	-0.274259
C	3.000668	0.979088	0.129393
C	3.798126	0.719295	1.384908
C	3.604024	1.827762	-0.926727
N	2.507652	2.33104	-0.107572
H	1.954426	-2.157647	-1.014071
H	3.266422	-1.870009	0.141871
H	3.401584	-1.255625	-1.519432
H	1.333618	-0.289469	0.564657
H	1.415885	0.278985	-1.100107
H	4.48416	1.552501	1.603676
H	4.404553	-0.195153	1.296679
H	3.126413	0.5929	2.250203
H	3.360455	1.648987	-1.980945
H	4.616888	2.213837	-0.760295
H	2.860152	2.970063	0.604675
