15

C	0.947255	0.054168	0.062079
C	2.433407	-0.014903	-0.013785
C	3.218507	-1.107606	-0.102688
C	4.669138	-0.697085	-0.080197
O	5.507413	-1.278352	-1.042553
C	4.592569	0.811426	-0.072577
C	3.303448	1.183198	0.00417
H	0.489966	-0.942578	-0.003431
H	0.539496	0.676417	-0.752337
H	0.620516	0.519247	1.007263
H	2.8933	-2.148725	-0.139202
H	5.084551	-1.002494	0.902813
H	5.147908	-1.043106	-1.905517
H	5.474583	1.453268	-0.088108
H	2.925663	2.206285	0.07498
