18

C	0.943305	0.012652	0.105333
C	2.453338	-0.006392	-0.068809
C	3.019353	-1.213644	-0.777816
C	4.085667	-0.89375	-1.518987
C	4.385752	0.576617	-1.417331
C	3.049275	1.162023	-0.89669
N	2.132452	1.557566	-1.949201
H	0.615054	0.940409	0.597525
H	0.614124	-0.837045	0.724414
H	0.424809	-0.04103	-0.861762
H	2.914723	0.031313	0.938572
H	2.620269	-2.223542	-0.647001
H	4.692866	-1.601184	-2.089597
H	5.21073	0.749725	-0.69953
H	4.693723	1.041694	-2.369343
H	3.218054	2.044282	-0.2574
H	2.010332	0.783486	-2.602851
H	2.530112	2.32565	-2.485568
