13

C	3.029215	-1.147	0.516965
O	2.321286	0.039116	0.288452
C	3.029531	1.176719	0.148036
C	2.402373	2.379529	-0.087327
S	3.536644	3.658966	-0.223565
C	4.859064	2.602756	0.029213
C	4.453103	1.306385	0.215836
H	2.285724	-1.950345	0.598954
H	3.610856	-1.107058	1.455733
H	3.716995	-1.384793	-0.315097
H	1.331923	2.548463	-0.183829
H	5.878681	2.985759	0.030492
H	5.146836	0.485723	0.394437
