15

C	0.882742	-0.033514	0.098265
C	2.391039	0.031404	-0.002349
C	3.15719	1.028571	0.886519
O	3.91566	0.002658	1.50834
C	3.201455	-1.01081	0.823854
C	2.861861	0.014023	-1.437101
O	2.270721	-0.527961	-2.330372
H	0.563125	-0.118474	1.14698
H	0.506787	-0.897243	-0.469056
H	0.420142	0.868053	-0.332781
H	2.520913	1.592532	1.592765
H	3.791722	1.754451	0.343375
H	3.852452	-1.697813	0.253267
H	2.55997	-1.620294	1.487895
H	3.831792	0.546779	-1.625792
