14

C	0.975985	-0.020326	0.01773
C	2.513799	-0.017997	0.028763
N	2.965471	-0.707641	1.237236
C	3.015541	-0.751785	-1.148873
C	3.420249	-1.348673	-2.120075
C	3.006138	1.378577	-0.046991
C	3.407906	2.52137	-0.056216
H	0.589381	0.456211	-0.892804
H	0.600072	0.534968	0.890389
H	0.622682	-1.058755	0.072131
H	2.673595	-0.166656	2.050696
H	3.983798	-0.733257	1.255441
H	3.780861	-1.874101	-2.984985
H	3.770651	3.532655	-0.065662
