17

C	0.950094	0.033285	0.161309
C	2.436387	0.065398	0.028761
C	3.173601	1.186266	0.164892
C	4.620008	1.172583	-0.038335
C	5.299522	0.013894	-0.081418
C	4.572006	-1.284482	0.121397
C	3.132868	-1.209904	-0.380584
H	0.635646	-0.665279	0.955966
H	0.483195	-0.331223	-0.771383
H	0.533153	1.024832	0.388168
H	2.685494	2.136153	0.404094
H	5.144992	2.127469	-0.133162
H	6.38718	0.006058	-0.199807
H	5.1019	-2.117253	-0.366535
H	4.574763	-1.517812	1.20571
H	2.562858	-2.088017	-0.036106
H	3.119134	-1.256828	-1.488716
