17

C	-1.736514	0.942775	0.332406
C	-1.38687	-0.391249	-0.267829
C	-0.416209	-1.384347	0.456456
C	0.892764	-0.864778	-0.131128
C	2.1081	0.001338	0.02668
C	0.729584	0.623841	0.088185
C	-0.590697	0.875273	-0.636122
H	-2.669863	1.405758	-0.001919
H	-1.508668	1.127922	1.388067
H	-2.107625	-0.818062	-0.973375
H	-0.47111	-1.290791	1.553369
H	-0.649094	-2.428634	0.19263
H	0.813523	-1.040587	-1.213982
H	2.668828	0.109934	0.961633
H	2.741737	0.030829	-0.865964
H	0.558267	0.813063	1.157066
H	-0.665922	1.344845	-1.621292
