16

C	1.057113	0.011772	0.307726
C	2.369447	-0.000762	0.050044
C	3.263514	1.21515	-0.130452
N	4.420262	0.758477	-0.891212
C	4.629282	-0.611552	-0.437412
C	3.248402	-1.175719	-0.145264
C	2.913589	-2.46991	-0.100438
H	0.483382	-0.912975	0.416017
H	0.511236	0.952496	0.421518
H	3.600427	1.572194	0.861078
H	2.760044	2.060461	-0.621885
H	4.158035	0.727483	-1.875541
H	5.19781	-1.201946	-1.171219
H	5.223504	-0.59659	0.495952
H	1.89043	-2.792161	0.111994
H	3.655602	-3.25399	-0.274819
