13

O	1.268236	-0.036003	0.65204
C	2.493966	-0.017877	0.001174
C	2.786627	-1.236964	-0.872628
C	3.487977	-0.647133	-2.062799
C	3.401292	0.694442	-2.119948
C	2.612355	1.159586	-0.966664
O	2.082211	2.22858	-0.770489
H	0.981039	0.889581	0.690104
H	3.338076	0.105936	0.717287
H	1.828914	-1.693551	-1.177437
H	3.375266	-2.023148	-0.375158
H	3.991095	-1.267738	-2.809808
H	3.777356	1.346339	-2.909333
