17

C	1.265527	-0.278608	0.458626
C	2.510275	0.215248	-0.264728
C	2.612339	-0.349927	-1.679973
N	2.720304	-1.798088	-1.669069
C	2.571848	1.739784	-0.278693
O	3.734978	2.26057	-0.868353
H	1.259056	0.024156	1.517338
H	1.206927	-1.374505	0.400447
H	0.355863	0.130494	-0.012952
H	3.399781	-0.140349	0.298067
H	3.442884	0.170913	-2.19687
H	1.691123	-0.076364	-2.226486
H	3.631821	-2.07635	-1.308529
H	2.669222	-2.166157	-2.61589
H	2.433023	2.118343	0.754631
H	1.725705	2.130434	-0.869738
H	4.488645	1.963836	-0.347645
