13

C	0.985014	-0.016107	0.07517
C	2.432617	0.030428	0.012537
C	3.647149	0.047139	-0.043727
C	5.099902	0.072806	-0.129049
O	5.733508	-0.746987	-0.750531
C	5.785925	1.232741	0.583549
O	4.979412	1.988064	1.427383
H	0.55526	0.990986	0.186518
H	0.661437	-0.617123	0.939878
H	0.564579	-0.475886	-0.832533
H	6.277579	1.830116	-0.213548
H	6.60016	0.796277	1.183279
H	4.218288	2.302396	0.926124
