19

C	0.885086	1.054399	-1.180166
N	2.324653	1.01586	-1.156096
C	2.915188	1.642941	0.004931
C	4.404232	1.507556	-0.007605
C	5.265865	2.522943	0.093772
C	6.755981	2.390424	0.098358
N	7.346765	3.252713	-0.909031
H	0.508572	0.596094	-2.107484
H	0.445055	2.074154	-1.1032
H	0.479111	0.466071	-0.339837
H	2.706912	1.438123	-1.998991
H	2.515608	1.127767	0.899773
H	2.636977	2.715142	0.124928
H	4.781517	0.482438	-0.119969
H	4.888613	3.551264	0.171442
H	7.024299	1.315025	0.015489
H	7.131982	2.722701	1.083834
H	7.105724	2.916722	-1.839783
H	8.36224	3.238292	-0.846396
