18

C	2.441276	-1.5747	-0.371064
C	1.891596	-0.173284	-0.152365
C	2.949183	0.844597	0.207737
C	3.669545	0.654168	1.523355
N	2.713871	0.62368	2.609506
C	3.590644	1.638656	-0.842909
O	2.575603	2.197463	-0.036851
H	1.645249	-2.265288	-0.68704
H	2.878864	-1.984675	0.552295
H	3.222894	-1.586136	-1.148433
H	1.150615	-0.183836	0.663091
H	1.374897	0.189197	-1.055343
H	4.437141	1.452142	1.603583
H	4.213554	-0.30514	1.497016
H	2.260046	1.532452	2.686692
H	3.175454	0.448523	3.497971
H	3.320431	1.455024	-1.891995
H	4.601446	2.040907	-0.689266
