12

C	1.810802	-0.407233	0.000899
O	1.001477	-1.586454	0.108312
C	-0.066726	-0.967452	-0.605294
C	-1.145506	-0.391662	0.267707
N	-1.022591	0.861025	0.478007
O	0.058188	1.363545	-0.19973
C	0.752155	0.305793	-0.844002
H	2.772235	-0.611751	-0.499828
H	1.998317	0.08189	0.971962
H	-0.434045	-1.590556	-1.437778
H	-1.977333	-0.93158	0.723895
H	1.025257	0.624655	-1.858151
