15

O	2.022001	0.039851	1.653875
C	2.566665	0.013044	0.583647
C	2.947535	-1.25061	-0.185506
C	3.922388	-0.797537	-1.24417
C	5.134344	-0.048527	-0.772816
C	3.94453	0.718502	-1.270911
C	2.984114	1.236981	-0.229442
H	2.023407	-1.657527	-0.632837
H	3.328341	-2.012236	0.512802
H	3.992684	-1.363642	-2.176312
H	5.353273	-0.032522	0.301757
H	6.025003	-0.07273	-1.405468
H	4.030569	1.249461	-2.222263
H	3.387759	2.011285	0.441505
H	2.072095	1.654738	-0.691302
