16

C	0.961664	-0.042303	0.029198
C	2.482594	-0.057557	-0.070482
N	3.011062	-0.711989	-1.249566
C	3.040539	1.379944	-0.005926
O	2.518068	2.101439	1.08453
C	4.50779	1.400136	-0.007803
C	5.715642	1.453317	0.059209
H	0.620262	0.479089	0.934417
H	0.56602	-1.069599	0.042914
H	0.52603	0.478253	-0.840743
H	2.892874	-0.58811	0.809209
H	2.572502	-0.332959	-2.088525
H	2.792171	-1.705166	-1.235582
H	2.687026	1.911636	-0.909773
H	2.99142	1.814298	1.873909
H	6.788228	1.493942	0.108204
