13

C	0.985054	0.303512	0.284153
C	2.287646	0.108541	0.02454
C	2.886479	-1.28364	-0.07745
C	3.424057	-1.589889	-1.398944
C	3.868103	-1.840465	-2.496722
C	3.18815	1.20508	-0.15489
C	3.979639	2.111719	-0.30953
H	0.568832	1.309609	0.3673
H	0.307707	-0.543907	0.418724
H	2.117835	-2.027088	0.188043
H	3.694671	-1.381884	0.668861
H	4.262076	-2.059821	-3.471651
H	4.676911	2.917104	-0.449884
