15

C	1.05219	0.021526	0.143008
N	2.441152	0.042479	-0.204644
O	3.08496	1.094594	0.441922
C	4.37975	1.255028	-0.107088
C	5.180606	-0.016182	0.128304
N	4.458381	-1.199888	-0.281771
C	3.193437	-1.093682	-0.384443
H	0.575982	0.957782	-0.182625
H	0.896901	-0.095612	1.231364
H	0.572373	-0.815929	-0.381029
H	4.809854	2.128945	0.402284
H	4.300468	1.476776	-1.1875
H	5.438167	-0.097296	1.199391
H	6.140534	0.031245	-0.414663
H	2.595235	-1.951616	-0.72753
