15

N	0.991633	-0.002144	-0.123421
C	2.147891	-0.001142	-0.065566
C	3.601761	-0.005121	0.014742
C	4.201663	1.126231	0.864405
C	5.604839	0.596079	1.110496
N	5.372474	-0.810436	1.373353
C	4.196443	-1.281006	0.656937
H	3.985124	0.094032	-1.015524
H	3.652637	1.212568	1.814578
H	4.176281	2.100367	0.356737
H	6.237276	0.788632	0.215672
H	6.091846	1.0932	1.965812
H	6.189593	-1.396425	1.253585
H	4.422395	-2.03073	-0.121982
H	3.464774	-1.743666	1.343835
