13

O	1.682375	0.342097	0.866815
C	2.626043	0.006455	0.205244
N	2.773947	-1.174408	-0.475413
C	4.046818	-1.344203	-1.122325
C	4.655023	0.036969	-0.926569
C	3.909369	1.211281	-1.418888
N	3.804147	0.79954	-0.019469
H	2.06351	-1.890882	-0.414823
H	4.672035	-2.107822	-0.625905
H	3.949067	-1.625795	-2.185317
H	5.733931	0.104117	-0.756488
H	4.42792	2.160132	-1.586035
H	3.041947	1.036908	-2.067188
