13

O	1.180571	-0.043206	0.599049
C	2.310476	0.007441	0.196811
C	3.160216	1.252778	0.004535
C	4.295392	0.761842	-0.883503
N	4.471489	-0.610229	-0.432254
C	3.157776	-1.180131	-0.244232
H	3.536818	1.5421	1.000506
H	2.565364	2.086898	-0.391039
H	3.991669	0.843748	-1.951519
H	5.224841	1.338708	-0.761273
H	5.077206	-1.159708	-1.032125
H	2.675653	-1.584123	-1.163829
H	3.129901	-1.979257	0.514562
