14

O	2.901447	-0.940047	-0.710773
C	2.371685	0.081626	0.087279
C	3.330462	1.236215	0.067421
C	3.338841	2.193527	-1.0725
C	2.787903	2.633598	0.26712
C	3.51287	3.574323	1.077185
N	4.09664	4.328819	1.735012
H	2.357097	-1.726079	-0.60726
H	2.223503	-0.243828	1.136565
H	1.383093	0.427651	-0.282806
H	4.299456	1.028764	0.531877
H	2.609565	2.048801	-1.873831
H	4.29452	2.616737	-1.387592
H	1.699877	2.738812	0.343913
