18

C	1.717219	2.709039	0.699824
O	3.023802	2.27078	0.893096
C	3.647611	1.824122	-0.275194
C	5.076967	1.410222	0.035854
C	5.741178	0.822255	-1.203309
C	5.87178	2.57623	0.611536
H	1.318705	3.031609	1.67226
H	1.06109	1.907485	0.302731
H	1.662627	3.566536	-0.001854
H	3.651765	2.625001	-1.049056
H	3.090414	0.966619	-0.710461
H	5.011377	0.622352	0.808288
H	5.808539	1.571768	-2.010154
H	5.183788	-0.043874	-1.594098
H	6.765237	0.487608	-0.979663
H	5.974946	3.384236	-0.133082
H	6.884717	2.261694	0.906047
H	5.364968	2.991197	1.493924
