19

C	0.939413	-0.030607	0.020263
C	2.449886	0.01315	0.053211
C	3.186516	1.056332	0.922369
C	4.25811	-0.005124	1.261057
C	5.49386	0.044035	0.380564
C	3.222941	-1.076388	0.822856
O	3.632678	-2.2384	0.176618
H	0.583812	-0.926952	-0.512265
H	0.51493	0.851549	-0.484999
H	0.525431	-0.061983	1.0414
H	2.846058	0.055523	-0.978368
H	2.590612	1.339848	1.804214
H	3.53179	1.977618	0.428036
H	4.563783	-0.060025	2.318584
H	5.240155	0.163244	-0.686811
H	6.087828	-0.877666	0.485579
H	6.138359	0.894341	0.652722
H	2.632718	-1.403121	1.695655
H	4.106309	-1.984994	-0.622744
