15

O	3.352719	-0.68288	0.546762
C	2.412387	0.096455	-0.151476
C	2.634161	1.545865	0.173472
C	1.649836	2.346666	0.587652
C	4.055061	2.032813	0.000586
C	4.5516	1.890352	-1.365267
C	4.949528	1.770443	-2.503197
H	3.478834	-1.507514	0.070194
H	1.37147	-0.182869	0.102678
H	2.529127	-0.02568	-1.247581
H	0.63764	1.964158	0.7467
H	1.819084	3.409564	0.782521
H	4.699437	1.437328	0.670094
H	4.136418	3.085636	0.314169
H	5.310419	1.666934	-3.509566
