16

O	0.830612	1.688882	-0.438658
N	2.171784	1.86899	-0.649794
C	2.88724	1.092233	0.058226
C	4.371588	1.149182	-0.008021
C	5.063915	2.164318	-0.935463
C	6.127797	2.379906	0.157553
C	5.146424	1.779996	1.18181
H	0.425354	2.326118	-1.035584
H	2.407029	0.377454	0.747586
H	4.758351	0.130529	-0.189134
H	4.426231	3.049035	-1.075956
H	5.391188	1.809137	-1.923577
H	7.003931	1.729779	0.008635
H	6.484302	3.405508	0.333292
H	5.540971	1.104444	1.956155
H	4.541333	2.560508	1.668992
