17

C	1.000643	-0.059186	-0.038178
N	2.421063	-0.001801	0.200953
C	3.169912	-1.130842	-0.292967
C	3.059778	1.228134	0.195711
C	2.326879	2.417681	0.739963
N	4.270276	1.265305	-0.240999
O	4.856198	2.512615	-0.103449
H	0.73694	0.028134	-1.112741
H	0.472597	0.735136	0.50429
H	0.605932	-1.02018	0.325558
H	2.632364	-2.056701	-0.039148
H	4.164613	-1.148509	0.170035
H	3.322659	-1.095284	-1.389463
H	1.773101	2.151776	1.651616
H	1.608915	2.817846	0.005894
H	3.048646	3.208723	0.971693
H	5.745857	2.356434	-0.431769
