16

C	1.034121	0.025225	-0.402838
O	2.421032	0.153276	-0.43225
C	2.881433	1.21948	0.347841
C	4.332899	1.330379	0.284847
C	5.537641	1.456183	0.264467
C	6.992621	1.567645	0.198688
N	7.423007	2.555618	-0.774932
H	0.762294	-0.828993	-1.038473
H	0.521194	0.928928	-0.791498
H	0.65173	-0.16399	0.621087
H	2.574342	1.094052	1.409241
H	2.432049	2.178981	0.010379
H	7.392931	0.542361	0.036304
H	7.360735	1.872844	1.194406
H	7.120285	2.277885	-1.70672
H	8.439635	2.598185	-0.797129
