13

C	0.975999	-0.039416	0.014293
C	2.506175	-0.004954	-0.017591
C	3.06581	-0.77546	-1.21678
C	3.0045	1.371496	0.00258
C	3.418415	2.510173	0.011645
H	0.581161	0.49395	0.891075
H	0.618041	-1.079586	0.052335
H	0.558585	0.434612	-0.887586
H	2.877505	-0.491768	0.903376
H	2.72347	-0.323183	-2.160344
H	2.721717	-1.820637	-1.193331
H	4.165499	-0.771407	-1.217477
H	3.785534	3.519548	0.019515
