13

C	5.953533	-0.806668	-0.057144
O	5.748364	0.349674	0.71635
N	5.204612	1.336475	-0.038182
C	5.016834	2.412086	0.630771
C	4.439688	3.571632	-0.020423
C	4.215641	4.736418	0.603476
H	6.373066	-1.558153	0.624964
H	6.663297	-0.619076	-0.880323
H	5.006032	-1.181228	-0.478939
H	5.291558	2.460623	1.696206
H	4.18962	3.444242	-1.078811
H	4.463918	4.873835	1.660596
H	3.780188	5.589921	0.079339
