17

C	0.860281	-0.030427	0.092982
C	2.377866	0.08601	0.035217
C	3.046331	-0.777912	1.099891
O	2.747108	-0.375041	-1.254702
C	2.763664	1.570601	0.219329
N	3.151034	2.176512	-0.938766
N	2.733313	2.217116	1.321091
H	0.406028	0.569813	-0.708445
H	0.477442	0.330308	1.057161
H	0.562335	-1.07975	-0.048124
H	2.734485	-0.493957	2.114883
H	4.143384	-0.682156	1.050897
H	2.774278	-1.831659	0.939003
H	3.709662	-0.431439	-1.280419
H	2.901887	1.72789	-1.809031
H	3.244963	3.183273	-0.913879
H	2.46172	1.606409	2.090503
