19

C	0.988967	0.022494	0.048505
C	2.516842	-0.074086	0.019453
N	2.944019	-0.917472	1.127064
C	2.980681	-0.769432	-1.277309
N	2.386739	-2.080715	-1.389664
C	3.088328	1.329227	0.03615
C	3.858686	1.854072	0.98885
H	0.623001	0.651876	-0.776371
H	0.650164	0.474874	0.99401
H	0.549627	-0.977556	-0.06006
H	2.546093	-0.592401	2.005559
H	3.957338	-0.883445	1.229841
H	4.094473	-0.76195	-1.265746
H	2.679206	-0.148573	-2.13975
H	2.572028	-2.583592	-0.521565
H	2.805405	-2.607109	-2.15147
H	2.814195	1.949812	-0.827021
H	4.152475	1.277281	1.871732
H	4.223142	2.882437	0.928993
