19

C	1.091679	-0.917166	-0.024522
C	2.465315	-0.336968	-0.123869
C	2.837275	0.948144	-0.012661
C	1.898135	2.098123	0.241234
N	2.095583	2.613772	1.588337
C	4.287812	1.345455	-0.114962
N	4.506752	2.19568	-1.273881
H	1.05379	-1.698754	0.753331
H	0.799057	-1.407297	-0.969032
H	0.323232	-0.168843	0.214033
H	3.26437	-1.068289	-0.307845
H	0.854796	1.807156	0.007619
H	2.175274	2.89247	-0.471095
H	1.739926	1.950396	2.273832
H	1.581033	3.481159	1.72021
H	4.917475	0.432115	-0.086799
H	4.527773	1.935481	0.785661
H	4.43935	1.648816	-2.130067
H	5.438704	2.602241	-1.254274
