19

C	2.939023	-1.220236	-0.477319
C	2.370848	0.038667	0.161442
C	3.372202	1.169596	0.209667
O	4.541955	0.86498	0.90678
C	3.586247	2.035593	-0.988611
C	2.901221	2.603866	0.231906
C	3.598286	3.621451	1.093386
H	2.222168	-2.054635	-0.441087
H	3.858142	-1.528187	0.042026
H	3.202481	-1.041553	-1.531519
H	2.03801	-0.178934	1.193767
H	1.472274	0.377797	-0.37916
H	4.307582	0.765879	1.837026
H	2.996632	1.842786	-1.889328
H	4.617293	2.350867	-1.170473
H	1.816436	2.738305	0.143062
H	4.659663	3.360247	1.214986
H	3.146593	3.673987	2.097494
H	3.541724	4.628445	0.650485
