15

C	3.14524	-0.876687	0.196921
N	2.647401	0.268681	0.488762
N	3.214511	1.38337	0.092602
C	4.423657	1.491196	-0.693854
C	4.573094	2.974919	-0.828636
C	3.585207	3.620222	-0.20376
C	2.632985	2.662287	0.439049
H	2.617273	-1.760416	0.563104
H	4.063916	-1.023077	-0.390396
H	4.3251	0.979393	-1.675265
H	5.290315	1.017298	-0.184486
H	5.39641	3.438756	-1.374877
H	3.462236	4.703606	-0.151916
H	2.571284	2.801635	1.536316
H	1.602229	2.765356	0.046997
