12

C	0.910371	0.016817	-0.194419
N	2.34245	0.020621	-0.069296
C	3.093236	1.138946	0.007323
C	4.451066	1.204153	-0.045625
C	5.137107	2.435411	0.087056
N	5.710572	3.442051	0.192302
H	0.473548	-0.819817	0.371772
H	0.568601	-0.060948	-1.242618
H	0.501344	0.947367	0.224376
H	2.824834	-0.853844	-0.237824
H	2.521427	2.064045	0.141323
H	5.056594	0.30389	-0.187691
