13

O	4.192453	2.503743	-3.022988
C	3.12357	2.576938	-2.463095
N	2.935327	2.345212	-1.137484
N	3.95581	1.940434	-0.301994
C	4.887084	3.025015	0.015205
C	5.962441	2.547434	0.87489
C	6.86181	2.148084	1.57937
H	2.167408	2.837943	-2.979662
H	1.99787	2.333346	-0.750961
H	4.466409	1.179896	-0.75148
H	4.324355	3.815557	0.539952
H	5.324168	3.480002	-0.8942
H	7.661846	1.793406	2.202854
