18

C	1.242159	-0.323016	0.966837
C	2.655953	-0.332791	0.408003
C	3.302815	1.055367	0.310985
N	3.31547	1.8093	1.558981
C	4.738081	0.960289	-0.211266
N	5.609777	0.381275	0.797031
H	0.814031	-1.336405	1.001951
H	0.569492	0.30061	0.354249
H	1.219096	0.075656	1.993116
H	2.652469	-0.790102	-0.596834
H	3.313919	-0.964713	1.0292
H	2.730688	1.654192	-0.421227
H	3.61722	1.196234	2.316452
H	2.378752	2.119034	1.804476
H	5.052915	1.971163	-0.542021
H	4.749756	0.312357	-1.103501
H	5.814387	1.086461	1.502933
H	6.503449	0.11455	0.393165
