18

N	1.399845	0.231062	0.64229
C	2.478392	0.466938	-0.304075
C	2.116992	-0.223624	-1.630708
C	3.169435	-0.106005	-2.684883
C	3.794756	-1.131376	-3.264565
C	2.632944	1.949597	-0.488317
C	3.775639	2.624538	-0.362273
H	1.634062	0.628565	1.549606
H	1.262749	-0.768026	0.784553
H	3.459162	0.057582	0.02227
H	1.167345	0.217886	-1.983057
H	1.910963	-1.288523	-1.426314
H	3.437744	0.915724	-2.98099
H	3.563454	-2.167973	-2.99622
H	4.556919	-0.975792	-4.033235
H	1.703902	2.475512	-0.744142
H	4.710033	2.117674	-0.099075
H	3.824413	3.705261	-0.521615
