19

C	3.060986	-1.186017	-0.45667
C	2.458627	0.075844	0.144042
O	1.959711	-0.159757	1.442758
C	3.430743	1.231629	0.121403
C	3.488892	2.169125	-1.051337
C	2.932693	2.637002	0.264227
C	3.67657	3.637545	1.105902
H	3.371153	-1.024049	-1.499896
H	2.334418	-2.011158	-0.423983
H	3.954145	-1.49383	0.113334
H	1.573199	0.364073	-0.450072
H	2.709754	-0.382686	2.005351
H	4.392193	1.009901	0.606036
H	2.79427	1.997141	-1.879555
H	4.467316	2.547906	-1.360603
H	1.840638	2.729012	0.307166
H	4.765717	3.484691	1.032509
H	3.396644	3.549982	2.168191
H	3.464092	4.670594	0.786177
