15

C	-1.625954	0.675277	0.593875
C	-1.073265	-0.304628	-0.367237
C	0.01512	-1.177961	0.176124
N	1.21424	-1.150095	-0.652632
C	1.140814	-0.283901	0.524934
C	0.748192	1.139226	0.167652
N	-0.619944	1.084489	-0.366252
H	-2.624193	1.097844	0.440054
H	-1.332767	0.564179	1.647473
H	-1.643822	-0.64028	-1.240991
H	-0.227282	-2.068997	0.765978
H	1.793041	-1.964676	-0.451737
H	1.787375	-0.485902	1.385335
H	0.794217	1.81277	1.039232
H	1.415968	1.539935	-0.611507
