12

C	0.939966	-0.047661	0.038819
C	2.15175	0.01585	0.014036
C	3.572772	0.055052	-0.006834
C	4.29364	1.156367	-0.270221
C	5.794489	1.180498	-0.257756
C	6.362399	1.656382	-1.518333
N	6.800029	2.040228	-2.518082
H	-0.133292	-0.101735	0.058215
H	4.088264	-0.888875	0.213451
H	3.784726	2.098018	-0.499894
H	6.203238	0.180354	-0.043185
H	6.157799	1.850662	0.542214
