14

C	1.155928	0.173625	-0.121071
N	2.598987	0.242334	-0.121667
C	3.346677	-0.642041	-0.974341
C	3.278687	0.821238	-1.260098
C	4.445961	1.70776	-0.906058
O	4.747544	1.657759	0.389355
O	5.042585	2.365603	-1.710454
H	0.743862	1.139756	0.20487
H	0.827844	-0.598449	0.590363
H	0.735499	-0.067993	-1.116868
H	2.788581	-1.299919	-1.652879
H	4.258783	-1.077357	-0.55182
H	2.704703	1.140089	-2.137837
H	4.025091	1.129685	0.798436
