16

N	1.09333	-0.031443	0.020245
C	2.526955	-0.020952	0.018238
C	3.154307	-0.951875	-1.043075
C	4.663231	-0.76238	-0.826099
C	4.652009	0.790818	-0.78898
C	3.140563	0.968511	-0.997336
O	2.866685	0.030842	-2.053823
H	0.728652	0.770049	0.530106
H	0.740505	-0.862113	0.49023
H	3.011699	-0.041456	1.019113
H	2.761665	-1.957253	-1.25469
H	5.030161	-1.227342	0.101483
H	5.236173	-1.167034	-1.671804
H	5.219266	1.244	-1.613517
H	5.011855	1.215804	0.160291
H	2.732825	1.976824	-1.161171
