17

C	3.512822	3.2011	-4.088333
O	2.812094	2.584172	-3.024644
C	3.333622	2.716667	-1.814027
N	4.405991	3.358681	-1.58839
N	4.748504	3.350352	-0.203971
C	4.753813	4.717506	0.270286
C	6.051607	2.736394	-0.06405
H	2.942155	2.986363	-5.000315
H	4.534225	2.798815	-4.171044
H	3.591076	4.287949	-3.929138
H	2.742305	2.214896	-1.033564
H	3.746469	5.149062	0.176541
H	5.461483	5.36406	-0.290898
H	5.03167	4.727425	1.335042
H	6.010781	1.694743	-0.413527
H	6.333822	2.729445	0.999411
H	6.8403	3.265111	-0.640579
