19

C	3.187158	-0.446712	-0.925697
O	4.171892	0.481497	-0.601528
C	3.715577	1.523663	0.20922
C	4.862391	2.469365	0.491934
C	4.459878	3.641722	1.369871
C	5.601616	4.595263	1.650966
O	5.122693	5.631392	2.466993
H	3.644387	-1.221861	-1.557643
H	2.346932	0.011876	-1.486751
H	2.760421	-0.936615	-0.026615
H	3.303004	1.128284	1.163068
H	2.88389	2.071387	-0.285633
H	5.259241	2.82761	-0.47313
H	5.675726	1.892856	0.964813
H	4.065818	3.283928	2.336442
H	3.642927	4.215205	0.899086
H	6.000704	4.97885	0.688324
H	6.430519	4.037859	2.135812
H	5.844826	6.2415	2.641778
