15

C	0.993229	0.077201	0.034278
C	2.496719	0.165632	0.193018
C	3.069023	1.464015	-0.319927
O	2.409232	2.309184	-0.876546
C	4.545127	1.682968	-0.134249
C	5.143852	1.652429	1.210231
O	5.325886	0.594438	0.308137
H	0.614544	-0.890601	0.393033
H	0.704225	0.195557	-1.019692
H	0.48828	0.87662	0.595542
H	3.021835	-0.643576	-0.34488
H	2.810821	0.03031	1.243039
H	4.99484	2.335748	-0.894662
H	4.511021	1.442284	2.083154
H	6.023527	2.277952	1.409314
