19

C	1.994744	0.225011	0.852665
O	3.357462	0.496546	0.923913
C	3.818904	1.315949	-0.115864
C	5.310638	1.468084	-0.023005
C	6.060656	0.173555	0.048341
C	5.858364	2.693238	-0.029025
C	7.306088	3.055307	-0.000836
H	1.733827	-0.432209	1.69472
H	1.720178	-0.289131	-0.091823
H	1.379492	1.144801	0.923736
H	3.324847	2.308597	-0.088402
H	3.55779	0.856339	-1.097079
H	5.853837	-0.443148	-0.843903
H	5.709821	-0.40689	0.915999
H	7.147399	0.306078	0.128724
H	5.166754	3.54507	-0.063511
H	7.969661	2.180728	0.035474
H	7.535074	3.687428	0.874161
H	7.580334	3.647678	-0.890836
