10

O	0.992769	-0.063952	0.180846
C	2.191598	-0.003117	0.070338
C	2.945994	1.255613	-0.018137
C	4.282352	1.224736	-0.141007
O	4.968747	0.062097	-0.186399
C	4.245687	-1.076247	-0.101435
N	2.988892	-1.173632	0.015859
H	2.404828	2.201575	0.017453
H	4.939099	2.093291	-0.215338
H	4.904155	-1.951753	-0.14797
