15

C	1.597536	-0.553561	0.319764
O	0.836944	-1.672573	-0.13227
C	-0.105247	-0.80924	-0.784067
C	-1.363785	-0.574381	0.000107
C	-1.359829	0.627129	0.588897
C	-0.12464	1.431385	0.280516
C	0.750932	0.441645	-0.490532
H	2.660995	-0.635348	0.034306
H	1.535811	-0.413372	1.416336
H	-0.279789	-1.123662	-1.828585
H	-2.159563	-1.318568	0.085222
H	-2.163847	1.009115	1.224916
H	0.366407	1.807091	1.195889
H	-0.370602	2.324658	-0.320541
H	1.277415	0.88135	-1.34762
