17

C	0.959281	-0.100586	-0.189861
C	2.385416	0.068971	0.217531
C	3.10187	1.206814	0.186626
C	4.560995	1.340127	0.591052
C	4.850296	2.854824	0.599398
C	3.622837	3.454628	-0.022575
C	2.663545	2.536957	-0.233331
H	0.862145	-0.841198	-1.002819
H	0.502394	0.836617	-0.536888
H	0.347957	-0.479383	0.647621
H	2.891473	-0.834881	0.579545
H	5.19646	0.830657	-0.151861
H	4.764582	0.861167	1.560476
H	5.768728	3.119107	0.048461
H	4.992189	3.245973	1.623406
H	3.528496	4.520336	-0.245848
H	1.678024	2.752111	-0.649813
