17

C	0.842207	0.371155	0.296973
C	2.312443	0.077957	0.095782
C	3.342129	1.028788	0.752695
C	3.971505	-0.208507	1.425136
N	2.865586	-0.998838	0.917387
C	2.817129	-2.347972	0.728721
N	3.584433	-3.245134	1.209344
H	0.218592	-0.466224	-0.053085
H	0.54624	1.268553	-0.268489
H	0.624336	0.537326	1.362912
H	2.520527	-0.077516	-0.981405
H	2.884145	1.732069	1.462888
H	3.991295	1.584887	0.063767
H	4.950876	-0.509579	1.006717
H	4.057736	-0.183593	2.524974
H	1.97657	-2.656599	0.08229
H	4.317412	-2.823911	1.790333
