11

C	0.979592	-0.034212	-0.00676
N	2.418957	0.051791	-0.011737
C	2.909729	1.405919	-0.019256
C	4.372306	1.455289	0.01908
N	5.528265	1.493713	0.023924
H	0.672101	-1.089283	-0.031928
H	0.480957	0.489673	-0.851597
H	0.580553	0.398603	0.925635
H	2.813886	-0.469954	-0.790168
H	2.534905	1.932952	0.876531
H	2.578089	2.019219	-0.889413
