14

C	0.393031	1.367027	0.320421
C	1.331044	0.299143	-0.215205
O	0.981438	-0.993861	0.243245
C	-0.337735	-1.278145	0.20381
C	-1.317267	-0.387709	-0.004931
C	-1.034013	1.079409	-0.139493
H	0.735347	2.360356	-0.008687
H	0.442252	1.352629	1.422099
H	2.369237	0.4659	0.105157
H	1.308978	0.301317	-1.322466
H	-0.523784	-2.342098	0.373885
H	-2.346924	-0.750713	-0.037252
H	-1.178087	1.413545	-1.18378
H	-1.753257	1.662511	0.459517
