13

O	1.595129	-0.027653	1.446341
C	2.40729	-0.020054	0.571164
C	3.172073	1.085935	-0.147451
C	4.118278	-0.015885	-0.712054
C	3.14202	-1.11468	-0.19454
C	4.418724	0.010372	-2.131356
C	4.655305	0.0311	-3.31949
H	3.612856	1.872861	0.482336
H	2.55599	1.558148	-0.929287
H	5.059671	-0.040733	-0.140141
H	2.514186	-1.535622	-0.995971
H	3.560788	-1.939712	0.400495
H	4.880929	0.050262	-4.369846
