11

C	0.252241	-1.337097	0.070668
O	-0.936828	-0.803461	-0.498351
N	-1.275652	0.463641	-0.131525
C	-0.30596	1.259694	0.15326
C	1.098344	0.909079	-0.009178
C	1.397701	-0.392555	-0.11454
H	0.403894	-2.298712	-0.437573
H	0.080263	-1.543791	1.149434
H	-0.614561	2.273664	0.424269
H	1.842709	1.702615	-0.105967
H	2.409258	-0.760048	-0.306555
