15

C	3.171897	-0.337946	-0.069178
C	4.419923	0.051354	-0.3189
O	4.913206	1.225053	0.150312
C	5.873982	1.882511	-0.555358
C	6.071118	1.727584	-1.876903
C	6.661114	2.798626	0.268822
C	6.507917	2.949607	1.589084
H	2.837113	-1.322502	-0.395824
H	2.478334	0.308263	0.473003
H	5.142021	-0.564873	-0.870063
H	5.443223	1.079509	-2.489606
H	6.871373	2.282198	-2.366906
H	7.409461	3.383853	-0.273803
H	5.758449	2.372883	2.136293
H	7.124538	3.654772	2.150907
