10

O	1.064904	-0.108302	0.382504
C	2.404264	0.012681	-0.016701
C	2.627287	-0.702025	-1.357811
O	3.443075	-0.403767	-2.17869
C	2.907153	1.384613	-0.022406
C	3.295101	2.53056	-0.030759
H	0.546579	0.531351	-0.11993
H	2.994777	-0.575556	0.713129
H	1.927959	-1.571206	-1.476678
H	3.647261	3.546021	-0.042757
