15

C	0.947934	-0.019672	0.298552
C	2.447128	-0.037413	0.070857
C	2.934956	1.165536	-0.732994
O	4.296136	1.052247	-1.049679
N	4.633787	-0.082013	-1.785665
C	3.895493	-1.108104	-1.561448
N	2.848954	-1.19375	-0.694744
H	0.654203	0.856021	0.896747
H	0.621709	-0.917612	0.847408
H	0.406848	0.012889	-0.659875
H	2.967114	-0.021195	1.047716
H	2.830423	2.096073	-0.156617
H	2.327065	1.249996	-1.656296
H	4.147253	-2.010429	-2.127647
H	2.340316	-2.061873	-0.611445
