13

C	2.8036	-1.207154	0.356164
C	2.304438	0.012863	0.118544
C	3.093671	1.227792	0.028139
N	2.540067	2.376901	-0.195336
N	3.527813	3.372322	-0.234555
C	4.675479	2.833056	-0.037186
C	4.578351	1.36071	0.164176
H	2.155006	-2.084148	0.412688
H	3.874707	-1.375038	0.504861
H	1.230142	0.162178	-0.026309
H	5.590719	3.431283	-0.027549
H	5.134448	0.785278	-0.595627
H	4.95308	1.036468	1.150019
