13

O	0.970093	0.021578	0.070545
C	2.363415	-0.011807	0.038964
C	3.052867	1.048328	0.90123
C	4.123411	-0.003162	1.254099
C	3.120338	-1.096208	0.836197
H	0.636335	-0.656596	-0.525388
H	2.748441	0.033355	-1.000407
H	2.410295	1.273416	1.7666
H	3.360293	1.993042	0.428362
H	4.986534	0.044373	0.572332
H	4.501536	-0.022695	2.286399
H	3.491874	-1.987296	0.306045
H	2.497948	-1.414828	1.687033
