13

C	0.970948	-0.042481	-0.090041
C	2.477368	0.061236	0.119104
C	2.96358	1.465715	0.049562
N	3.597504	2.051607	1.030176
O	3.847956	3.314634	0.555075
C	3.337398	3.371165	-0.666838
N	2.776415	2.27351	-1.047766
H	0.648526	-1.093628	-0.089732
H	0.681866	0.406525	-1.051718
H	0.422231	0.482127	0.706653
H	3.003308	-0.515472	-0.659871
H	2.779181	-0.355848	1.090736
H	3.44085	4.310461	-1.210579
