17

C	2.942885	-0.0228	1.217209
O	2.756274	0.731438	0.052419
C	3.316557	2.029585	0.046205
C	2.92104	2.621946	-1.303313
C	2.855634	2.906784	1.199815
C	4.840034	1.894787	0.031437
O	5.608288	2.651172	0.557814
H	2.641467	-1.054551	0.987194
H	2.325882	0.336189	2.060969
H	3.998815	-0.040656	1.552102
H	3.283061	1.982833	-2.122322
H	3.328299	3.635099	-1.427489
H	1.823481	2.661225	-1.364599
H	3.1714	2.503063	2.172136
H	1.75944	2.9968	1.189476
H	3.301388	3.905808	1.108348
H	5.188994	1.009838	-0.5669
