15

C	0.880035	0.128612	-0.03201
C	2.370714	0.037335	-0.009724
C	2.939263	-1.356136	-0.072966
O	2.429937	-2.093096	-1.158673
C	3.15657	1.134304	0.046858
C	4.579478	1.130033	0.062436
C	5.794009	1.171551	0.07653
H	0.523344	1.166105	-0.084705
H	0.453086	-0.34309	0.870289
H	0.482941	-0.437743	-0.88875
H	2.635064	-1.90511	0.835615
H	4.043642	-1.317084	-0.0739
H	2.754359	-1.679611	-1.966131
H	2.682836	2.122276	0.094149
H	6.867673	1.208534	0.090731
