14

C	0.945082	-0.153612	-0.074171
C	2.452883	0.03626	0.073093
C	2.868118	1.476984	0.039025
C	3.193042	2.257794	1.12304
S	3.551931	3.846037	0.602385
N	3.290374	3.533784	-1.001724
C	2.94368	2.277125	-1.142925
H	0.675776	-1.220668	-0.059146
H	0.579744	0.272492	-1.02154
H	0.402541	0.347476	0.741914
H	2.973972	-0.505917	-0.733882
H	2.796276	-0.417899	1.016046
H	3.236299	1.957528	2.170945
H	2.736482	1.902504	-2.151409
