16

C	0.857266	-0.028271	0.070023
C	2.37602	0.01647	-0.049079
C	3.038448	-0.778969	1.075789
N	2.87779	-0.471049	-1.338828
C	2.859205	1.48074	0.112393
O	3.831946	1.799359	-0.726685
O	2.418713	2.221107	0.949029
H	0.380022	0.511601	-0.763546
H	0.538493	0.458066	1.001815
H	0.498405	-1.069059	0.064651
H	2.771048	-0.346037	2.049111
H	4.135001	-0.756438	0.977276
H	2.701735	-1.828157	1.054823
H	2.186442	-0.34104	-2.075713
H	3.104992	-1.461856	-1.308016
H	3.922055	0.987494	-1.288703
