13

C	1.069698	-0.00731	0.74127
O	2.433883	0.289387	0.873806
C	2.878421	1.272127	-0.017296
C	2.378699	2.659095	0.419386
O	1.912543	3.471994	-0.324737
C	4.337615	1.314786	-0.027255
C	5.543085	1.418702	-0.030205
H	0.832347	-0.783121	1.481188
H	0.830952	-0.392867	-0.268605
H	0.42142	0.869397	0.932736
H	2.505576	1.102789	-1.049015
H	2.4935	2.829612	1.521799
H	6.615272	1.496168	-0.038562
