15

C	0.876605	0.061839	0.068246
C	2.383611	-0.007983	0.031653
C	3.210188	0.951241	0.898103
O	3.961275	-0.123817	1.460041
C	3.091751	-1.096091	0.874648
C	3.772835	-2.176344	0.174571
C	4.311784	-3.086619	-0.415258
H	0.427062	-0.806406	-0.438429
H	0.50856	0.967585	-0.43866
H	0.503016	0.081506	1.10455
H	2.753454	-0.031141	-1.004396
H	2.616269	1.48772	1.663401
H	3.849572	1.679622	0.371508
H	2.417611	-1.537113	1.637672
H	4.795467	-3.892678	-0.935959
