16

C	0.446871	-0.574002	-0.036825
C	1.913054	-0.343815	-0.335529
C	2.704823	-1.621047	-0.528991
N	4.101215	-1.325384	-0.755338
O	2.054604	0.392692	-1.570889
C	1.880835	1.710099	-1.526758
O	1.593613	2.353618	-0.55828
H	-0.068965	0.385318	0.101918
H	0.337703	-1.158715	0.88885
H	-0.035977	-1.12692	-0.857073
H	2.380488	0.25578	0.461917
H	2.210386	-2.20787	-1.334685
H	2.602741	-2.211682	0.396556
H	4.193537	-0.793349	-1.619087
H	4.633174	-2.182127	-0.88538
H	2.045528	2.132362	-2.541595
