14

N	1.239579	3.228509	0.59537
C	2.347501	2.949022	0.770879
C	3.749128	2.608542	1.018912
O	4.262659	1.901383	-0.068583
C	5.613074	1.61075	0.072966
C	6.392931	1.498082	-1.185522
C	6.61669	2.673423	-0.270102
H	3.797815	2.019769	1.957439
H	4.306737	3.549225	1.20037
H	5.843506	0.923667	0.900921
H	5.838391	1.683386	-2.10858
H	7.159765	0.722359	-1.254188
H	7.542735	2.731665	0.307825
H	6.217401	3.636687	-0.599928
