12

O	1.195261	-0.097879	0.597242
C	2.316291	-0.007806	0.188074
C	3.117946	1.254354	-0.051862
C	4.395273	0.795264	-0.764386
N	4.355103	-0.648602	-0.670117
C	3.213877	-1.204458	-0.182357
O	2.947714	-2.373996	-0.062507
H	3.3291	1.711776	0.928095
H	2.525611	1.983694	-0.62255
H	4.406821	1.123136	-1.81813
H	5.30441	1.196923	-0.289083
H	5.103442	-1.238996	-1.0126
