12

N	0.963845	0.017508	0.00973
C	2.121158	0.000348	-0.002142
C	3.592234	-0.003246	-0.008803
C	4.199416	-1.203015	-0.809274
N	4.616868	-0.65921	-2.089264
C	4.547863	0.605508	-1.983018
N	4.139282	1.114545	-0.761883
H	3.928364	0.003309	1.040469
H	3.483847	-2.029018	-0.932435
H	5.077606	-1.602237	-0.273899
H	4.831247	1.300809	-2.781055
H	3.69066	2.02169	-0.708956
