16

C	0.934017	0.179148	-0.580704
N	2.260613	0.240468	-0.034871
C	3.055755	1.365599	-0.023679
C	2.318638	2.678975	-0.096742
N	4.318901	1.198953	0.069486
C	5.21027	2.317323	0.172652
H	0.512343	-0.817414	-0.38588
H	0.882511	0.355193	-1.674414
H	0.263775	0.90495	-0.095267
H	2.819415	-0.604437	-0.083785
H	1.54765	2.741316	0.687064
H	1.806405	2.783437	-1.066557
H	3.000882	3.528693	0.018006
H	6.223049	1.959789	0.414944
H	4.935235	3.046617	0.960484
H	5.29672	2.88405	-0.775357
