17

C	0.94389	-0.071079	-0.086192
C	2.47243	-0.006437	-0.019401
C	3.123388	-0.848529	-1.120462
C	2.94539	1.376871	-0.062624
C	3.322525	2.532552	-0.112617
C	3.795181	3.873345	-0.183637
C	3.103497	4.953977	0.208528
H	0.482931	0.512842	0.723426
H	0.600168	-1.113313	-0.000265
H	0.580751	0.331789	-1.044372
H	2.786812	-0.423529	0.956227
H	2.841832	-0.468316	-2.114658
H	2.792457	-1.895949	-1.048034
H	4.220491	-0.825179	-1.046023
H	4.80381	4.005737	-0.594396
H	2.095881	4.867286	0.622839
H	3.534857	5.954143	0.121881
