18

C	2.825385	-0.488635	-1.693239
C	2.450154	0.020915	-0.312484
C	3.010573	1.409298	0.018528
N	2.470265	1.87054	1.284203
C	2.788733	3.236399	1.630119
C	4.486206	1.422334	-0.027647
C	5.698639	1.435259	-0.013632
H	2.392023	-1.482532	-1.878429
H	3.917319	-0.569864	-1.80757
H	2.45653	0.186892	-2.481696
H	2.799745	-0.686868	0.459931
H	1.35667	0.09337	-0.20116
H	2.65429	2.110392	-0.760981
H	2.772152	1.238885	2.0237
H	2.345312	3.920405	0.887889
H	3.87445	3.460111	1.68123
H	2.341403	3.482679	2.604687
H	6.773101	1.44702	-0.00511
