11

N	1.003407	-0.061592	-0.211825
C	2.364454	0.095258	-0.077274
C	3.186282	1.189798	-0.014691
C	4.518688	0.660635	0.034851
C	4.401757	-0.691742	0.005004
O	3.082828	-1.039126	-0.065169
H	0.468345	0.746789	0.079006
H	0.650104	-0.918891	0.199364
H	2.880893	2.233023	-0.008566
H	5.44665	1.226288	0.091436
H	5.110692	-1.513781	0.030313
