15

C	0.976271	-0.508347	-0.283784
N	2.376121	-0.288056	0.012336
C	3.241163	-1.378149	-0.031
N	2.963454	-2.582746	-0.312004
C	2.787529	1.011145	0.322246
C	4.249117	1.234785	0.629151
O	1.993945	1.924401	0.342422
H	0.457013	0.450641	-0.184855
H	0.537893	-1.233739	0.420204
H	0.846547	-0.883327	-1.311785
H	4.28112	-1.131247	0.21408
H	1.972399	-2.714676	-0.527244
H	4.892283	0.966695	-0.222612
H	4.579836	0.650295	1.500394
H	4.368888	2.301935	0.846631
