13

C	0.920601	2.345256	-1.659237
C	1.984571	1.998663	-0.940984
O	2.843353	2.953671	-0.470915
C	3.919286	2.559533	0.255652
O	4.168592	1.412089	0.512608
C	4.713338	3.736898	0.668244
C	5.821504	3.581143	1.39574
H	0.243674	1.573964	-2.027098
H	0.708716	3.391248	-1.89083
H	2.254859	0.973692	-0.674594
H	4.349006	4.716676	0.350198
H	6.144073	2.577692	1.689078
H	6.424058	4.435575	1.71211
