18

C	1.937642	-0.444952	-1.346915
O	2.134049	0.096567	-0.076475
C	3.036086	1.153173	-0.054948
C	2.554888	2.536429	-0.546836
N	2.812988	3.115186	0.780566
C	3.203325	1.799983	1.328031
C	4.56063	1.712839	1.986547
H	1.215987	-1.269164	-1.255862
H	2.877973	-0.846282	-1.776229
H	1.530165	0.296393	-2.062656
H	4.004559	0.850562	-0.507145
H	1.482364	2.539583	-0.811336
H	3.117971	2.97959	-1.384849
H	3.57399	3.788696	0.787817
H	2.427773	1.412983	2.014157
H	5.355379	2.042814	1.29682
H	4.780614	0.678585	2.292857
H	4.602818	2.346745	2.886098
