14

C	1.40728	-0.355699	-0.091791
O	2.743272	0.045175	-0.140155
C	2.929206	1.409209	0.03155
C	4.372919	1.762946	-0.029675
C	5.345743	0.863726	-0.234558
C	6.724925	1.220569	-0.289069
N	7.851067	1.496569	-0.335708
H	1.378528	-1.444071	-0.237835
H	0.802017	0.123104	-0.886513
H	0.93903	-0.11868	0.884234
H	2.519014	1.758409	1.006489
H	2.385228	1.997171	-0.742337
H	4.61726	2.821761	0.105187
H	5.089372	-0.1914	-0.367919
