17

C	4.367882	-1.29872	1.028295
C	3.202236	-0.488337	0.542629
C	1.947854	-0.974497	0.55218
C	3.450412	0.867389	0.049453
C	4.644058	1.478538	-0.024347
C	4.847341	2.872002	-0.527231
O	5.529732	3.681379	0.398689
H	4.884925	-0.788615	1.857246
H	5.11176	-1.439863	0.227221
H	4.050115	-2.28939	1.37946
H	1.726237	-1.980905	0.916089
H	1.105707	-0.376014	0.193366
H	2.563602	1.418037	-0.290001
H	5.553707	0.969569	0.315391
H	3.873669	3.307625	-0.830955
H	5.479545	2.853528	-1.431765
H	5.03007	3.661166	1.222072
