12

C	2.727828	-1.192751	0.361912
C	2.261966	0.034329	0.109371
C	3.082239	1.237172	0.026147
N	2.508383	2.395978	-0.220953
O	3.500999	3.320969	-0.241759
C	4.67444	2.728648	-0.008533
C	4.496055	1.395396	0.173921
H	2.055566	-2.052091	0.410414
H	3.790953	-1.386692	0.530773
H	1.193217	0.201848	-0.055299
H	5.547654	3.378553	-0.002366
H	5.247119	0.638552	0.380794
