18

C	1.079395	0.28733	0.929785
C	2.382438	0.027642	0.23851
C	2.690589	-1.149358	-0.319558
C	3.358747	1.172878	0.19141
C	2.974119	2.488725	-0.529187
C	3.620847	3.203241	0.667204
N	3.506522	1.956869	1.424683
H	1.266876	0.689926	1.936887
H	0.467875	-0.622583	1.005169
H	0.491815	1.052693	0.395488
H	1.988383	-1.988284	-0.319192
H	3.659882	-1.311656	-0.800756
H	4.32323	0.800281	-0.209555
H	1.886639	2.640111	-0.573293
H	3.403989	2.652834	-1.526099
H	4.660572	3.516012	0.446592
H	3.086839	4.065818	1.100373
H	4.279553	1.704563	2.03598
