15

C	2.887617	-1.175271	0.486632
N	2.292256	0.044794	0.018226
C	3.054524	1.208628	0.03336
C	2.587513	2.50362	-0.140184
N	3.672254	3.346139	-0.096408
C	4.811244	2.63337	0.09611
C	4.470727	1.296621	0.188208
H	2.148627	-1.988177	0.435354
H	3.276257	-1.125202	1.525514
H	3.729389	-1.465972	-0.163249
H	1.34446	0.186702	0.343525
H	1.579431	2.875023	-0.306016
H	3.624598	4.348301	-0.202061
H	5.782885	3.117809	0.163296
H	5.163689	0.475005	0.351223
