15

C	0.925044	-0.048232	0.030683
C	2.376124	0.008136	0.013159
C	3.59103	0.06027	-0.001588
C	5.012355	0.085122	-0.011043
C	5.766293	1.174856	-0.241219
C	7.26061	1.17027	-0.240494
O	7.799921	1.717247	-1.4176
H	0.486559	0.96018	0.087813
H	0.559876	-0.623915	0.896309
H	0.534423	-0.532043	-0.879298
H	5.515576	-0.87007	0.194099
H	5.28574	2.135817	-0.458303
H	7.633328	0.144849	-0.041031
H	7.632373	1.804817	0.582593
H	7.447439	1.213597	-2.15948
