21

C	0.940596	-0.026981	0.043611
C	2.452702	0.003841	0.050679
C	3.188567	1.063328	0.896451
C	4.252659	0.00097	1.257691
C	5.509932	0.081306	0.410117
C	3.224474	-1.084816	0.829282
C	3.67152	-2.341496	0.114344
H	0.557623	-0.913396	-0.48785
H	0.519175	0.863107	-0.450975
H	0.543428	-0.056497	1.071779
H	2.828104	0.035138	-0.987774
H	2.59085	1.364669	1.771743
H	3.54027	1.97481	0.386558
H	4.536132	-0.036138	2.322876
H	5.276686	0.153515	-0.664794
H	6.152301	-0.802369	0.551376
H	6.100908	0.971855	0.678118
H	2.627782	-1.362753	1.716787
H	4.263964	-2.109992	-0.784856
H	2.803518	-2.939138	-0.207876
H	4.289369	-2.980743	0.766044
