15

C	1.032065	0.077749	-0.607394
C	2.15705	-0.064163	0.369198
C	2.465456	-1.35733	1.177633
C	3.839248	-0.650173	1.109971
O	3.48283	-0.198934	-0.216127
C	3.578478	0.605783	1.955021
C	2.413461	1.013977	1.442865
H	0.068017	0.115074	-0.078941
H	1.02067	-0.770445	-1.306638
H	1.148179	1.005348	-1.187819
H	2.422813	-2.256932	0.54463
H	1.983595	-1.510125	2.154506
H	4.802156	-1.172924	1.179505
H	4.194836	1.018727	2.752786
H	1.780466	1.866187	1.689734
