15

C	0.940112	0.436318	0.218565
N	2.362869	0.647394	0.129446
C	3.191953	-0.519554	0.062689
C	3.470949	-1.144824	1.41839
O	3.724388	-2.305379	1.578286
C	2.898315	1.915697	0.158333
N	4.109419	2.302448	0.149968
H	0.425912	1.405947	0.263992
H	0.660694	-0.134896	1.122389
H	0.556697	-0.112958	-0.659588
H	4.167614	-0.262721	-0.38955
H	2.748918	-1.290582	-0.590295
H	3.428881	-0.419211	2.275493
H	2.111207	2.687617	0.184395
H	4.777163	1.527545	0.144597
