19

C	0.894775	0.943557	-1.05975
C	2.378891	0.779501	-1.053388
C	3.201208	1.276438	-0.124619
C	4.706744	1.16192	-0.063209
C	5.112546	0.455671	1.226379
C	5.315008	0.457189	-1.272164
O	5.24673	2.474562	0.048129
H	0.551218	1.433527	-1.986696
H	0.545213	1.543	-0.205955
H	0.386377	-0.034386	-1.021772
H	2.79998	0.196759	-1.88194
H	2.780653	1.860746	0.705166
H	4.692045	0.984412	2.094183
H	6.208901	0.462353	1.322795
H	4.754921	-0.583496	1.235784
H	5.047113	0.975361	-2.206888
H	4.978222	-0.586995	-1.352491
H	6.410586	0.465658	-1.178911
H	4.934428	2.975432	-0.713754
