16

C	0.934903	0.066975	0.043384
N	2.372633	0.104046	0.002444
C	3.11309	-1.141964	-0.073106
C	3.391813	-1.597196	-1.500635
O	4.009027	-0.619274	-2.277759
C	3.061553	1.264749	-0.086263
O	4.266077	1.346661	-0.24017
H	0.539233	1.091687	0.08314
H	0.57482	-0.476057	0.933443
H	0.516107	-0.422087	-0.852433
H	2.555554	-1.919602	0.473593
H	4.069113	-0.986339	0.452726
H	2.444286	-1.875589	-1.998047
H	3.992481	-2.529667	-1.435663
H	4.512709	-0.031635	-1.693368
H	2.408722	2.163422	0.014752
