18

C	2.996027	-1.226449	-0.482955
C	2.383335	0.006195	0.166385
C	3.339494	1.171025	0.220791
O	4.509339	0.933293	0.948196
C	3.556181	2.040255	-0.982127
C	2.854499	2.60803	0.217523
N	3.49815	3.623978	0.993835
H	2.30867	-2.08576	-0.461264
H	3.92231	-1.508836	0.03845
H	3.259498	-1.026429	-1.533302
H	2.058277	-0.231513	1.196881
H	1.472488	0.318329	-0.370788
H	4.255304	0.837587	1.874079
H	2.97992	1.83822	-1.889151
H	4.585323	2.36755	-1.156501
H	1.773318	2.76202	0.117424
H	4.485923	3.392312	1.090861
H	3.116084	3.631362	1.938783
