11

C	0.931778	0.015301	-0.007248
C	2.421343	0.024245	-0.001201
C	3.285261	1.079119	0.002993
O	4.55012	0.650589	0.007424
N	4.571322	-0.70815	0.006309
C	3.320121	-1.084244	0.001044
H	0.527501	1.036856	-0.000364
H	0.530353	-0.509867	0.873638
H	0.537397	-0.494991	-0.90004
H	3.141921	2.158709	0.00365
H	3.084694	-2.149598	-0.000804
