14

C	1.018688	0.020505	-0.070821
C	2.522285	-0.005806	-0.028487
C	3.317325	-0.718033	-1.059511
C	3.310949	0.797575	-1.045649
C	4.525504	1.502082	-0.591669
O	4.907257	2.564189	-1.007474
H	0.620263	0.913026	0.435776
H	0.596105	-0.867069	0.425804
H	0.650954	0.030279	-1.108356
H	2.950684	-0.009391	0.981827
H	2.787417	-1.194195	-1.889264
H	4.240934	-1.223273	-0.761218
H	2.752209	1.320526	-1.827654
H	5.095577	0.954954	0.211267
