15

O	0.941211	0.024577	0.124093
C	2.330809	-0.024589	0.040522
C	3.052537	1.039561	0.868779
C	4.124578	-0.023917	1.239769
C	3.093437	-1.111599	0.826272
C	5.31871	0.013769	0.411117
C	6.311395	0.045686	-0.283812
H	0.574253	-0.619043	-0.490202
H	2.681264	0.004773	-1.009572
H	2.440372	1.294146	1.746611
H	3.387839	1.960113	0.371528
H	4.423068	-0.038937	2.300178
H	3.470432	-1.995671	0.292031
H	2.494332	-1.425178	1.693981
H	7.194272	0.07539	-0.894884
