16

C	0.92529	0.038256	0.075645
C	2.441917	-0.038672	-0.045724
C	2.864657	-0.819488	-1.283808
C	3.042221	1.378477	-0.038394
C	4.499039	1.414208	-0.028747
C	5.710331	1.430396	-0.01813
H	0.615445	0.566287	0.991341
H	0.476858	-0.966454	0.100267
H	0.489639	0.575512	-0.783541
H	2.836907	-0.562231	0.843599
H	2.48026	-0.338033	-2.199011
H	2.46945	-1.84613	-1.257244
H	3.960423	-0.876421	-1.367795
H	2.668904	1.930717	0.841799
H	2.673815	1.931989	-0.922056
H	6.784414	1.446856	-0.007382
