14

C	1.127015	-0.963004	-0.156167
C	2.227451	0.064497	0.053506
N	1.724993	1.411344	0.17213
C	1.910716	2.359508	-0.765849
O	2.53469	2.250829	-1.803541
C	1.238877	3.684952	-0.408587
O	0.59499	3.851389	0.592083
H	1.552709	-1.975022	-0.229474
H	0.570272	-0.756861	-1.082776
H	0.409788	-0.960407	0.680464
H	2.921847	0.069356	-0.799978
H	2.816485	-0.182793	0.953536
H	1.154234	1.680069	0.968289
H	1.407024	4.478464	-1.176143
