18

C	0.777181	0.258056	0.307746
C	2.25902	0.060061	0.026423
C	3.248277	0.987272	0.787547
C	4.043929	-0.29167	1.089492
N	2.851926	-1.072186	0.751315
C	2.521758	0.117568	-1.457997
C	3.055827	-0.844131	-2.209965
H	0.608477	0.303248	1.393686
H	0.187611	-0.577715	-0.100173
H	0.404614	1.193749	-0.14001
H	2.793057	1.424039	1.688119
H	3.752314	1.779724	0.215531
H	4.889586	-0.426357	0.388601
H	4.410079	-0.426998	2.120904
H	2.991666	-1.936383	0.232562
H	2.222067	1.061161	-1.933364
H	3.382406	-1.798267	-1.78385
H	3.201275	-0.71112	-3.285216
