17

C	3.270097	-1.531146	-0.997532
C	2.892109	-0.608373	0.121828
C	2.180023	-1.010341	1.180692
C	3.380282	0.815813	-0.011923
C	4.870897	0.923103	0.092461
N	5.579813	1.316777	-0.891008
N	6.908582	1.450284	-0.74434
H	2.845003	-1.175321	-1.951209
H	2.919121	-2.557809	-0.822965
H	4.363404	-1.551531	-1.138433
H	1.834291	-2.043447	1.278543
H	1.912189	-0.316998	1.98335
H	2.908875	1.438464	0.767279
H	3.087797	1.227384	-0.992302
H	5.331983	0.629923	1.057521
H	7.397372	1.403238	-1.629594
H	7.352812	0.899411	-0.006889
