19

C	1.380921	-0.105053	-0.703233
O	2.463523	0.118473	0.15682
C	3.109722	1.325872	0.065351
C	2.214653	2.526857	0.083567
C	4.458272	1.324294	0.039302
C	5.233929	0.040339	0.030313
C	5.302384	2.563166	0.049882
H	1.0794	-1.153716	-0.572878
H	1.65564	0.051511	-1.763593
H	0.508885	0.532558	-0.469765
H	1.475695	2.430032	0.896273
H	1.649336	2.636893	-0.857207
H	2.772313	3.456105	0.240216
H	4.575902	-0.834963	-0.02086
H	5.854367	-0.047631	0.939993
H	5.931209	0.011996	-0.825558
H	4.729507	3.498635	0.073572
H	5.951137	2.594828	-0.843207
H	5.979845	2.563953	0.922484
