13

O	1.138742	0.173304	-0.203322
N	2.498553	0.085774	-0.186984
C	3.147122	-1.024103	0.335237
N	4.357407	-0.832697	0.674346
C	4.627441	0.580968	0.41934
C	3.309513	1.207916	0.007205
C	2.939151	2.483077	-0.142993
H	0.894383	0.188244	-1.139045
H	2.604235	-1.972998	0.392611
H	5.064585	1.062535	1.308618
H	5.377518	0.670111	-0.387368
H	3.647091	3.289678	0.047056
H	1.918998	2.735461	-0.435741
