15

C	1.03136	0.025848	-0.050882
C	2.532039	0.065949	0.017585
O	3.054489	0.182854	1.306185
C	3.372074	-0.699223	-0.979708
C	3.348128	0.802597	-1.014939
N	4.521624	1.543645	-0.669518
H	0.680348	0.026631	-1.093323
H	0.60231	0.90071	0.462245
H	0.633187	-0.882878	0.433201
H	2.957009	-0.67106	1.742091
H	2.878914	-1.25921	-1.779658
H	4.285768	-1.161692	-0.592493
H	2.784478	1.252171	-1.840985
H	4.911062	1.148476	0.186067
H	4.24823	2.493011	-0.417269
