15

C	0.980863	-0.055717	-0.051364
C	2.50048	-0.038155	0.108
C	3.074034	1.299038	0.033031
C	3.5156	2.431039	-0.02296
C	4.104991	3.722911	-0.093165
N	3.446576	4.787674	0.198399
N	4.069933	5.96083	0.165451
H	0.596523	-1.084388	0.015152
H	0.682357	0.361083	-1.02457
H	0.496236	0.544634	0.732399
H	2.967563	-0.671873	-0.666286
H	2.780691	-0.494846	1.074231
H	5.164907	3.775918	-0.409297
H	3.443245	6.751312	0.093134
H	4.935881	6.04319	-0.370035
