17

C	1.127191	-0.56006	0.370942
O	2.486272	-0.240392	0.400598
C	2.768364	1.122366	0.172434
C	2.322152	1.973236	1.334241
C	1.486134	3.007022	1.244999
C	4.252864	1.233193	-0.019851
C	4.845485	1.901062	-1.007943
H	1.038151	-1.640507	0.552267
H	0.671511	-0.331748	-0.614142
H	0.54579	-0.021854	1.143245
H	2.252321	1.475133	-0.745671
H	2.742115	1.682511	2.3054
H	1.053161	3.305978	0.284366
H	1.208438	3.599027	2.12123
H	4.849264	0.722402	0.745758
H	4.264401	2.411791	-1.782771
H	5.934377	1.96665	-1.080463
