19

C	3.074498	-1.144376	-0.641735
C	2.554436	0.031958	0.17049
C	3.328983	1.323674	-0.052311
C	3.297352	1.872794	-1.494495
C	3.408469	3.359125	-1.299768
C	3.172175	3.707164	-0.030883
C	2.865647	2.507502	0.820562
H	2.502932	-2.062236	-0.436376
H	4.131763	-1.351519	-0.40881
H	3.009006	-0.949252	-1.724172
H	2.583315	-0.220203	1.245316
H	1.489799	0.209843	-0.068024
H	4.390572	1.138287	0.195233
H	2.340953	1.624798	-1.998089
H	4.09408	1.45244	-2.130077
H	3.611608	4.058576	-2.115025
H	3.152844	4.733503	0.345415
H	3.361156	2.525561	1.805193
H	1.778304	2.452499	1.025338
