18

C	0.912028	0.053969	-0.040139
C	2.416485	-0.16191	0.009111
C	3.206538	1.146588	-0.058949
C	4.701167	0.976	0.021694
C	5.356597	0.244353	-1.113527
C	5.405854	1.453606	1.054827
H	0.363992	-0.898689	0.013261
H	0.610939	0.558778	-0.972752
H	0.569976	0.682915	0.797839
H	2.71734	-0.824565	-0.820353
H	2.690062	-0.694134	0.937061
H	2.870598	1.811986	0.753855
H	2.954565	1.663198	-1.005273
H	4.994626	-0.794572	-1.184546
H	6.450149	0.21367	-1.004227
H	5.118163	0.725625	-2.077516
H	4.920611	1.986738	1.877861
H	6.491257	1.327476	1.114323
