10

C	0.973171	0.003072	-0.000103
C	2.422928	-0.007685	-0.003112
C	3.636968	-0.011545	-0.001087
C	5.094204	0.016006	0.001315
O	5.66608	-1.199167	-0.000497
O	5.749068	1.017105	0.004718
H	0.586403	1.033234	0.008611
H	0.580811	-0.51856	0.886768
H	0.576769	-0.504693	-0.893226
H	4.978738	-1.877437	-0.003397
