15

C	0.98669	-0.00353	0.003641
C	2.494794	-0.031798	-0.097129
O	2.87578	-1.158546	-0.911753
C	3.305974	-0.662773	-2.085779
C	3.401971	0.672857	-2.14828
C	3.0988	1.21939	-0.781876
O	4.231109	1.743111	-0.127808
H	0.661975	0.809651	0.670072
H	0.605861	-0.955619	0.399299
H	0.541717	0.161122	-0.990228
H	2.960881	-0.163464	0.892105
H	3.526673	-1.412076	-2.84925
H	3.736584	1.260059	-3.00149
H	2.361832	2.040019	-0.787937
H	4.967839	1.154667	-0.330867
