13

N	2.814117	-0.611954	1.305054
C	2.389328	0.0095	0.071153
C	2.89381	1.431976	-0.027152
C	2.057088	2.473677	-0.173035
C	4.31031	1.62506	0.048313
C	5.512614	1.778289	0.108049
H	2.562559	-1.596754	1.32257
H	2.366256	-0.169774	2.10449
H	1.29157	0.029687	-0.097685
H	2.823816	-0.56295	-0.767063
H	0.975727	2.314955	-0.22186
H	2.428517	3.497394	-0.255522
H	6.576818	1.913234	0.165667
