21

C	0.961859	0.026286	-0.043774
C	2.476166	0.027329	0.061115
C	3.067253	1.12688	0.94559
C	4.504	0.663599	1.144544
C	4.381082	-0.851536	1.385271
C	5.611886	-1.640268	0.96725
C	3.079113	-1.262978	0.648701
H	0.601252	-0.797686	-0.679866
H	0.585769	0.968055	-0.474096
H	0.500199	-0.09307	0.950689
H	2.89632	0.169117	-0.952141
H	2.536051	1.146548	1.914697
H	2.979492	2.132507	0.504282
H	5.079066	0.845563	0.218698
H	5.034096	1.182685	1.958308
H	4.227989	-1.006389	2.467287
H	5.792904	-1.536807	-0.115817
H	5.499377	-2.714205	1.18601
H	6.513848	-1.2858	1.490996
H	3.268397	-2.014988	-0.134438
H	2.365981	-1.723151	1.353785
