12

C	0.826696	-0.079676	0.060171
C	2.263962	0.396489	-0.149382
C	1.123495	1.329293	-0.277158
O	0.921707	2.355163	0.666278
C	0.478019	3.388639	-0.067886
N	0.363154	3.187055	-1.316957
O	0.761748	1.871912	-1.524189
H	0.503467	-0.29896	1.081278
H	0.369878	-0.690443	-0.723125
H	2.77006	0.104386	-1.073428
H	2.903595	0.496283	0.731664
H	0.244319	4.325109	0.436093
