13

N	1.020936	0.011665	0.343067
C	2.358084	-0.045926	0.025935
N	3.027963	-1.091349	-0.284169
C	3.068258	1.262253	-0.006309
C	2.462821	2.448419	-0.162921
C	4.56389	1.23037	0.091362
O	5.242741	2.226232	0.116471
H	0.706829	0.77315	0.930205
H	0.543387	-0.867034	0.498187
H	2.456525	-1.938453	-0.232779
H	1.382287	2.549405	-0.292174
H	3.080244	3.351064	-0.195693
H	5.001506	0.208364	0.138167
