14

C	0.996463	0.039592	0.068116
C	2.47874	-0.028972	-0.019269
C	3.274029	-1.105498	-0.110893
C	4.700506	-0.682549	-0.173383
O	5.694467	-1.368032	-0.260067
N	4.660042	0.691274	-0.111706
C	3.331676	1.213778	-0.01413
H	0.546523	-0.961784	0.046993
H	0.57713	0.624802	-0.76731
H	0.677872	0.541405	0.997185
H	2.975904	-2.153188	-0.140207
H	5.502161	1.247994	-0.137464
H	3.064648	1.87404	-0.862322
H	3.165108	1.797999	0.911898
