15

C	1.025384	0.220143	-0.077484
O	2.395327	0.206686	0.232626
C	3.118289	1.312593	0.044264
N	4.383925	1.324579	0.165764
C	4.802398	2.671231	-0.174284
C	3.515142	3.529045	-0.192064
N	2.500354	2.496394	-0.353742
H	0.675431	-0.816699	0.003045
H	0.839847	0.584362	-1.101412
H	0.443272	0.832162	0.636065
H	5.552035	3.056585	0.535247
H	5.284089	2.667383	-1.170345
H	3.490009	4.26322	-1.012054
H	3.381986	4.075829	0.76076
H	1.572651	2.694797	0.002654
