17

C	1.216738	-0.607102	0.53738
C	2.436863	-0.234386	-0.302778
C	2.658774	-1.200037	-1.455829
O	1.581658	-1.054785	-2.349112
N	2.346375	1.099767	-0.849559
C	2.528295	2.238305	-0.115355
N	2.958731	2.381605	1.076156
H	1.047917	0.142004	1.324201
H	1.350205	-1.58907	1.017628
H	0.322598	-0.652205	-0.101239
H	3.342442	-0.283325	0.328782
H	2.727791	-2.230566	-1.056248
H	3.623558	-0.956749	-1.94154
H	1.746678	-1.588067	-3.131357
H	1.822898	1.169718	-1.71412
H	2.274847	3.146893	-0.687403
H	3.159971	1.478989	1.515233
