17

C	0.965892	0.019886	-0.043891
C	2.494828	-0.011208	-0.017648
C	3.066462	-1.283114	0.638529
C	3.408698	-0.904087	2.093628
O	4.5325	-1.563193	2.619357
C	3.532126	0.597879	2.017448
C	3.056419	1.077034	0.864993
H	0.565362	-0.78104	-0.684644
H	0.590284	0.979671	-0.432121
H	0.552008	-0.113454	0.968463
H	2.854922	0.098609	-1.056096
H	4.012414	-1.56295	0.145225
H	2.395701	-2.152424	0.565043
H	2.584198	-1.173546	2.779182
H	5.294683	-1.293774	2.093536
H	3.932451	1.187698	2.846396
H	3.00345	2.136275	0.595541
