15

C	2.239599	-0.014572	1.772202
C	2.503998	0.191777	0.288518
N	3.051775	1.497969	-0.020626
C	2.160089	2.621796	-0.105005
C	4.396601	1.635932	-0.168882
O	5.207251	0.742125	-0.077881
H	1.813405	-1.013074	1.95311
H	1.5302	0.727526	2.171097
H	3.177778	0.063243	2.340945
H	1.577333	0.059147	-0.295955
H	3.234149	-0.549241	-0.067936
H	1.419894	2.48889	-0.91346
H	2.735674	3.534988	-0.314934
H	1.608719	2.780714	0.837742
H	4.684816	2.69211	-0.397665
