15

O	3.323163	-0.470722	-1.067472
C	2.128992	-0.309495	-0.341425
C	2.204979	1.026772	0.36017
N	3.322514	1.032697	1.273557
C	3.57253	2.317128	1.872822
C	4.683383	2.264785	2.825401
N	5.571441	2.228543	3.565564
H	3.393669	-1.384271	-1.357912
H	2.004889	-1.101823	0.421242
H	1.238706	-0.325646	-1.00042
H	1.266441	1.195619	0.917313
H	2.269745	1.826155	-0.412287
H	4.146679	0.697467	0.777005
H	2.676473	2.643939	2.430057
H	3.791595	3.133461	1.147355
