15

O	0.574559	-0.167203	-0.136863
C	1.947832	-0.331307	0.128552
C	2.595235	-0.89348	-1.14061
C	2.004047	-2.207175	-1.543501
C	2.692386	-3.340469	-1.686252
C	2.579938	0.928462	0.545146
C	3.086409	1.970024	0.899953
H	0.158839	0.20923	0.6459
H	2.105673	-1.069359	0.943252
H	3.68107	-0.981656	-0.981606
H	2.433729	-0.146814	-1.937823
H	0.921996	-2.20087	-1.716293
H	3.773666	-3.379965	-1.51366
H	2.204559	-4.27149	-1.987042
H	3.535671	2.894954	1.212157
