17

C	1.089	-0.120837	0.329859
C	2.359287	0.175878	-0.396557
C	3.045679	1.322099	-0.321962
C	2.751814	2.567049	0.478838
C	3.60349	3.615737	-0.234623
C	4.765913	2.764588	-0.725557
O	4.196181	1.506623	-1.034481
H	1.203988	-0.980501	1.013041
H	0.275524	-0.384169	-0.367877
H	0.742253	0.730016	0.93494
H	2.776162	-0.602763	-1.043466
H	3.086146	2.433996	1.522821
H	1.680829	2.811223	0.506621
H	3.054194	4.033086	-1.093262
H	3.918266	4.449105	0.409192
H	5.258587	3.15446	-1.628389
H	5.535959	2.64458	0.061712
