17

C	1.767065	-1.361236	0.476359
C	3.250429	-1.083253	0.625366
N	3.645764	0.079096	-0.135386
C	5.048219	0.413413	-0.044042
C	5.382542	1.576532	-0.924631
C	6.021552	2.678132	-0.529379
H	1.474805	-2.269971	1.023239
H	1.503541	-1.488072	-0.584189
H	1.164406	-0.528176	0.87502
H	3.827411	-1.947895	0.250295
H	3.507312	-1.000379	1.707132
H	3.083146	0.883812	0.135387
H	5.624643	-0.46671	-0.389002
H	5.397819	0.614848	0.994514
H	5.049345	1.47801	-1.96508
H	6.352028	2.805018	0.507156
H	6.247264	3.491391	-1.224429
