12

C	2.980635	-1.126515	0.137838
C	2.480967	0.106669	0.041003
N	3.187503	1.32442	-0.01931
C	2.446644	2.516347	-0.100818
O	1.247478	2.547764	-0.119945
C	4.58107	1.406788	-0.005361
O	5.19759	2.436122	-0.051055
H	2.285822	-1.966516	0.172416
H	4.044463	-1.366497	0.187804
H	1.403128	0.28232	-0.001008
H	3.10624	3.405291	-0.1408
H	5.06965	0.412247	0.055825
