19

C	2.322634	-0.49293	-1.435359
C	2.505657	0.031146	-0.019963
O	3.117144	-0.925013	0.817566
C	3.260999	1.347757	0.015941
C	2.592395	2.622869	-0.540487
C	3.195891	3.407192	0.641158
C	3.413795	2.066789	1.370387
H	1.771819	0.224998	-2.062611
H	1.771683	-1.444499	-1.423636
H	3.302543	-0.668227	-1.911193
H	1.509444	0.202508	0.427641
H	3.995815	-1.102373	0.462814
H	4.252112	1.202953	-0.455289
H	1.493694	2.554537	-0.465215
H	2.848906	2.94045	-1.562486
H	4.15072	3.881096	0.365556
H	2.565017	4.164786	1.130409
H	4.350222	1.923548	1.929613
H	2.57471	1.817813	2.039985
