17

C	0.806967	0.092902	-0.126685
C	2.278897	0.007593	0.168053
C	3.219732	-0.924414	-0.570864
C	2.76587	-1.506039	-1.901038
C	2.927998	-0.318185	-2.861564
O	2.847092	0.853316	-2.069859
C	3.301001	0.559096	-0.785612
H	0.363905	0.963632	0.380338
H	0.270032	-0.80557	0.216931
H	0.623482	0.21997	-1.202929
H	2.538953	0.133446	1.225575
H	3.981764	-1.455237	0.005268
H	3.390198	-2.361261	-2.197739
H	1.722987	-1.860079	-1.864073
H	3.908695	-0.364531	-3.375535
H	2.144359	-0.264015	-3.63363
H	4.137318	1.176125	-0.437477
