18

C	1.479423	-0.33257	-0.072009
N	2.857097	0.032159	-0.299564
C	3.321046	1.192707	0.433593
C	4.824084	1.242484	0.326133
O	5.407854	0.052516	0.728159
C	5.462392	2.002325	-0.811103
C	5.580194	2.487622	0.614471
H	1.218111	-1.215193	-0.674645
H	0.748594	0.470212	-0.307319
H	1.335839	-0.604806	0.985965
H	3.032779	0.167654	-1.29348
H	3.048022	1.057532	1.49501
H	2.869835	2.151802	0.101192
H	4.800951	-0.625103	0.385759
H	4.830561	2.569762	-1.502029
H	6.34819	1.543738	-1.256543
H	6.54322	2.354834	1.113315
H	5.027429	3.383783	0.911555
