18

C	2.159641	-0.717721	-1.354358
N	1.875975	0.340805	-0.415794
C	3.019749	1.058938	0.065965
C	3.777081	0.35006	1.160713
C	3.807685	1.942786	-0.895326
C	2.900232	2.545343	0.144589
O	3.433815	3.181309	1.251001
H	2.732239	-0.396754	-2.251546
H	1.21813	-1.172934	-1.695926
H	2.741851	-1.516388	-0.867455
H	1.180031	0.979108	-0.787944
H	4.58004	0.983733	1.558609
H	4.222543	-0.585794	0.789814
H	3.087882	0.102341	1.981458
H	3.492411	1.980774	-1.942746
H	4.8856	2.040748	-0.730903
H	1.948796	2.968971	-0.216874
H	3.847698	3.996815	0.950082
