19

N	1.665987	3.123797	1.866865
C	2.435413	3.278081	0.644639
C	3.181722	1.99451	0.317357
C	3.973885	2.056029	-0.977075
N	4.997781	3.07817	-0.928853
C	6.281004	2.706502	-0.388593
C	6.104088	2.964694	-1.840754
H	1.154296	3.979313	2.072855
H	2.295726	2.981917	2.655761
H	3.164108	4.114112	0.652794
H	1.733102	3.495218	-0.179709
H	2.458266	1.164156	0.269298
H	3.873867	1.752746	1.145617
H	3.299445	2.297288	-1.817023
H	4.404405	1.052652	-1.194969
H	6.431491	1.660433	-0.086282
H	6.773987	3.4415	0.257228
H	6.463477	3.895183	-2.294273
H	6.137871	2.089947	-2.505574
