15

C	2.343318	-0.516643	-1.4178
C	2.552192	0.011656	0.000324
C	3.019404	1.428661	0.03127
N	2.250637	2.493345	0.015664
C	3.094116	3.567693	-0.017162
C	4.403395	3.152704	-0.023826
N	4.33658	1.782257	0.005092
H	1.967872	-1.551147	-1.405254
H	3.282057	-0.503533	-1.993826
H	1.614367	0.109516	-1.953138
H	3.267735	-0.627681	0.545187
H	1.604343	-0.026839	0.557127
H	2.720549	4.591008	-0.028714
H	5.346356	3.693325	-0.036002
H	5.123179	1.147096	0.013498
