17

N	2.679644	-0.957352	-0.451555
C	2.311757	0.127366	0.117581
N	2.948143	1.304944	-0.090746
C	2.600595	2.561856	0.540266
C	3.352863	3.584597	-0.306962
C	4.613314	2.820794	-0.711068
C	4.097744	1.406835	-0.970438
H	2.069517	-1.721497	-0.165053
H	1.458243	0.220906	0.817562
H	2.942525	2.601013	1.593965
H	1.510169	2.727331	0.54204
H	2.760707	3.835789	-1.202573
H	3.556476	4.520666	0.233156
H	5.126646	3.254854	-1.581033
H	5.330781	2.813328	0.126916
H	3.791373	1.25672	-2.022615
H	4.830441	0.61561	-0.745041
