17

C	1.825652	1.615851	-1.431424
C	3.06248	1.084295	-0.748466
O	3.991953	2.126068	-0.617825
C	5.185099	1.754496	0.006782
C	6.054313	2.989615	0.150491
C	5.449422	4.037054	1.048476
O	6.076421	4.705598	1.82645
H	1.076518	0.819762	-1.553998
H	2.077311	2.014692	-2.42499
H	1.379705	2.429097	-0.839786
H	3.502608	0.249929	-1.334071
H	2.808058	0.669104	0.249275
H	5.720007	0.982205	-0.583528
H	4.984562	1.306409	1.003638
H	6.167526	3.444636	-0.85033
H	7.059132	2.743279	0.523682
H	4.341762	4.162339	0.932974
