15

O	1.321592	0.02203	0.714181
N	2.386597	0.012953	-0.185244
C	2.891977	1.181951	-0.288226
C	2.51466	2.437769	0.452391
C	3.343569	3.51954	-0.245853
C	4.538892	2.74518	-0.806516
N	3.941318	1.469652	-1.131523
H	1.02813	-0.892796	0.695215
H	2.794409	2.310702	1.512156
H	1.428131	2.602549	0.434148
H	2.76745	3.949911	-1.079684
H	3.64274	4.342745	0.417866
H	4.976758	3.224388	-1.69595
H	5.342524	2.657958	-0.045129
H	4.496762	0.703009	-1.488042
