18

C	1.0116	0.13411	0.12121
C	2.50332	-0.08123	-0.0345
O	3.25328	0.96102	0.64257
C	4.06747	-0.03079	1.31162
C	3.14578	-1.16666	0.85172
C	3.782	-2.31843	0.09654
N	4.4877	-3.20911	1.01375
H	0.45648	-0.71972	-0.27997
H	0.69232	1.02859	-0.42308
H	0.72967	0.25937	1.17192
H	2.797	-0.12474	-1.09116
H	5.08606	-0.0375	0.91092
H	4.09821	0.13306	2.39295
H	2.4765	-1.51288	1.65157
H	4.47673	-1.96102	-0.67123
H	3.00171	-2.89487	-0.41254
H	5.31395	-2.74266	1.38735
H	4.83746	-4.01659	0.49696
