19

C	1.078343	-0.100338	0.135563
C	2.578947	0.057944	-0.057881
C	2.927608	0.211449	-1.534729
C	3.172962	1.197641	0.793332
C	4.521576	0.634081	1.223551
C	4.165392	-0.832343	1.418649
O	3.223155	-1.131087	0.417274
H	0.848007	-0.283957	1.195617
H	0.705283	-0.955737	-0.447121
H	0.53877	0.803155	-0.189077
H	4.008968	0.369157	-1.665592
H	2.392818	1.0607	-1.987098
H	2.653674	-0.705378	-2.077618
H	2.540032	1.375727	1.678059
H	3.241684	2.144148	0.237408
H	5.266078	0.743315	0.417943
H	4.930781	1.108317	2.127474
H	5.025868	-1.513168	1.314815
H	3.732614	-0.994607	2.427731
