15

C	1.54192	2.602186	0.273894
N	2.628415	2.139608	-0.206636
N	3.353519	1.267846	0.490219
C	4.711214	1.067517	0.105456
C	5.86249	1.79242	0.837079
O	6.524411	0.556304	1.086278
C	5.408898	-0.196531	0.624991
H	0.951534	3.281517	-0.34648
H	1.165791	2.342067	1.279655
H	3.136223	1.150412	1.483021
H	4.758057	1.184269	-0.985909
H	5.538624	2.29924	1.767442
H	6.475925	2.493997	0.24575
H	5.684193	-0.962751	-0.119698
H	4.857737	-0.692142	1.449037
