19

C	2.111722	-0.325876	-1.511169
C	2.471398	0.155233	-0.114821
C	3.214638	1.478787	-0.106597
C	2.42392	2.688167	-0.60281
C	3.105066	3.8283	0.143755
C	3.396859	3.171484	1.489168
O	3.588079	1.798088	1.22463
H	1.613005	-1.305908	-1.480094
H	3.009946	-0.431694	-2.141138
H	1.430948	0.374685	-2.021395
H	3.103738	-0.588579	0.397043
H	1.566227	0.269184	0.506566
H	4.133927	1.372683	-0.722734
H	1.369145	2.596303	-0.289795
H	2.443536	2.799156	-1.696772
H	4.044869	4.104693	-0.361326
H	2.490249	4.736194	0.229725
H	4.294676	3.582246	1.981533
H	2.546654	3.305094	2.186961
