13

C	1.025989	0.035276	-0.17136
C	2.351451	-0.053832	0.024544
C	3.197666	-1.219794	0.241018
C	4.466797	-0.776141	0.381617
N	4.53036	0.604833	0.272227
C	3.263397	1.137804	0.054676
N	2.904119	2.350681	-0.091851
H	0.568051	1.016311	-0.319155
H	0.391503	-0.853809	-0.187544
H	2.867834	-2.255102	0.280865
H	5.376699	-1.349775	0.557182
H	5.370844	1.155256	0.364984
H	3.69886	2.991171	-0.033692
