15

C	2.206199	-0.830701	0.306171
N	3.47403	-0.283419	-0.089657
N	3.760699	0.95504	0.215222
C	4.956369	1.412863	0.076142
C	5.262111	2.819894	0.384043
C	4.129079	3.699328	0.854006
O	6.397714	3.233179	0.257626
H	1.959502	-1.688928	-0.335295
H	1.431996	-0.062228	0.175581
H	2.189551	-1.164919	1.360211
H	4.235608	-0.928207	-0.307642
H	5.801761	0.79576	-0.275073
H	3.68189	3.290277	1.772015
H	3.326352	3.731682	0.102203
H	4.516339	4.708218	1.039827
