19

C	1.122946	-0.455165	0.541712
C	2.404318	-0.174144	-0.235599
C	2.690348	-1.261276	-1.270733
O	1.815402	-1.237163	-2.371574
C	2.358308	1.218975	-0.868543
C	3.556217	1.550951	-1.734032
O	4.730498	1.328917	-0.988999
H	0.93248	0.322271	1.297622
H	1.168557	-1.425142	1.061918
H	0.241927	-0.470085	-0.124439
H	3.254411	-0.19229	0.467825
H	2.688841	-2.25178	-0.770637
H	3.703829	-1.11737	-1.674973
H	0.924653	-1.407025	-2.049133
H	2.268623	1.969474	-0.064767
H	1.454726	1.308462	-1.495258
H	3.479946	2.605191	-2.068019
H	3.528348	0.923436	-2.646406
H	5.488114	1.494041	-1.557326
