13

C	2.985879	-1.201093	0.526263
O	2.323535	0.01266	0.286076
C	3.058997	1.125729	0.194871
C	2.563916	2.38251	-0.045213
C	3.595318	3.361754	-0.0861
C	4.845379	2.847986	0.120957
S	4.795355	1.140774	0.3721
H	2.217778	-1.98361	0.563963
H	3.528562	-1.18082	1.488853
H	3.703047	-1.435898	-0.281415
H	1.500455	2.573426	-0.18565
H	3.413591	4.422436	-0.267226
H	5.801318	3.368485	0.140351
