12

O	1.345245	0.075957	0.664422
C	2.405059	-0.026096	0.096116
N	2.874933	-1.174825	-0.509251
O	4.252282	-1.158875	-0.719433
C	4.623235	0.191861	-0.660369
C	3.929393	1.148093	-1.560456
C	3.473955	0.998248	-0.121287
H	2.550775	-2.091968	-0.222177
H	5.668267	0.310851	-0.366399
H	4.463615	2.069835	-1.802214
H	3.28308	0.759778	-2.352413
H	3.545262	1.818749	0.594371
