19

C	1.792581	-0.851681	0.935729
C	3.197113	-0.35953	0.62789
C	3.358225	1.168525	0.738016
C	3.115346	1.642227	2.145449
C	2.149163	2.477254	2.52819
C	4.733563	1.583663	0.290752
C	5.002296	2.370975	-0.750583
H	1.723893	-1.946303	0.841608
H	1.057556	-0.410267	0.243776
H	1.484458	-0.577722	1.956351
H	3.487862	-0.660572	-0.392431
H	3.924882	-0.843019	1.304459
H	2.614682	1.644399	0.074332
H	3.809654	1.246739	2.899925
H	1.438321	2.89531	1.807927
H	2.034186	2.779529	3.572493
H	5.564467	1.182668	0.887279
H	4.202038	2.793422	-1.366953
H	6.029115	2.626332	-1.025319
