19

C	0.830325	0.983833	-0.111642
C	2.279295	0.628186	-0.338439
O	3.076671	1.74324	-0.035216
C	4.458892	1.537584	-0.206658
C	5.196147	2.82737	0.089685
C	4.739897	3.992721	-0.780894
O	3.450826	4.4322	-0.469759
H	0.181257	0.122383	-0.326785
H	0.528152	1.816442	-0.764444
H	0.668723	1.290516	0.932194
H	2.445768	0.314711	-1.389567
H	2.575526	-0.229246	0.299621
H	4.664475	1.214484	-1.249361
H	4.808065	0.721364	0.458149
H	6.274646	2.64757	-0.055848
H	5.048368	3.099267	1.148686
H	4.832645	3.69599	-1.850457
H	5.423637	4.846782	-0.638699
H	2.915705	3.632622	-0.358754
