18

N	1.049419	0.12622	0.106923
C	2.485657	-0.063633	-0.037792
C	2.784992	-1.505877	-0.479689
C	2.709952	-1.492781	-2.012632
C	3.18944	-0.096774	-2.397645
C	2.183213	1.013404	-2.382077
C	3.055476	0.785629	-1.179883
H	0.840505	1.105426	0.292454
H	0.702572	-0.403477	0.90408
H	3.046565	0.171441	0.89026
H	2.11127	-2.240111	-0.008052
H	3.812658	-1.757408	-0.170323
H	3.332854	-2.27914	-2.464586
H	1.677413	-1.663186	-2.356323
H	4.058747	0.00164	-3.055128
H	2.389246	1.898039	-2.991968
H	1.12708	0.745158	-2.28952
H	3.820781	1.528792	-0.938
