15

O	1.376342	0.181595	0.862823
C	2.423255	0.066407	0.255963
C	3.068513	-1.276156	-0.023142
C	3.989574	-1.253448	-1.235924
C	4.902827	-0.047439	-1.14271
N	4.107304	1.166552	-1.186454
N	3.111031	1.168989	-0.171614
H	2.249271	-2.001826	-0.120799
H	3.629639	-1.557941	0.884781
H	4.580553	-2.179573	-1.298042
H	3.397173	-1.178666	-2.162765
H	5.507791	-0.127887	-0.213121
H	5.599905	-0.004112	-1.993568
H	4.720314	1.949803	-0.964094
H	2.542289	2.010393	-0.173973
