16

C	1.491122	2.457283	-1.040421
C	2.910008	1.979423	-1.149352
O	3.441097	1.594517	-2.157204
O	3.52495	2.035153	0.043621
C	4.893201	1.622133	0.094126
C	5.814121	2.785221	-0.199484
N	5.665006	3.812059	0.810578
H	1.477586	3.505213	-0.70664
H	0.954874	1.869245	-0.281978
H	0.996546	2.367524	-2.013833
H	5.054653	0.803901	-0.622247
H	5.049644	1.266876	1.122143
H	5.621635	3.113651	-1.242789
H	6.848685	2.40071	-0.180404
H	4.694365	4.120112	0.836626
H	6.220697	4.630819	0.576238
