18

C	0.900348	-0.020676	-0.211042
C	2.383766	0.125014	0.035561
C	2.782851	-0.045381	1.480948
N	3.298206	-0.461386	-0.941934
C	3.149595	0.993637	-0.899989
C	4.427499	1.727378	-0.572477
O	5.434364	1.383879	-1.48225
H	0.647135	0.138039	-1.271048
H	0.328241	0.707985	0.384005
H	0.556807	-1.028034	0.076823
H	3.87311	-0.028831	1.604705
H	2.421964	-1.016623	1.855724
H	2.341235	0.744597	2.108656
H	2.787678	-0.85851	-1.729462
H	2.566007	1.449528	-1.711578
H	4.731099	1.517499	0.47162
H	4.268219	2.815419	-0.644891
H	5.417636	0.417167	-1.515943
