18

C	0.923735	-0.013853	-0.065599
C	2.442698	0.009917	-0.08379
C	3.010592	1.409886	0.165823
C	4.467679	1.464149	0.160287
C	5.679879	1.493082	0.166941
C	7.141442	1.526043	0.133639
N	7.645562	2.817292	-0.30518
H	0.534272	-1.027518	-0.242879
H	0.502095	0.644453	-0.842245
H	0.528221	0.32829	0.90469
H	2.818713	-0.360005	-1.052247
H	2.843453	-0.678281	0.678883
H	2.635808	1.791142	1.132885
H	2.62107	2.10654	-0.598402
H	7.483326	0.661027	-0.476667
H	7.518606	1.334559	1.153917
H	7.323539	3.011386	-1.251427
H	8.662662	2.795611	-0.34091
