19

C	0.888672	0.039775	-0.233755
C	2.379946	0.033183	0.013333
C	2.743618	-0.043999	1.479386
C	3.249501	-0.68396	-0.985044
C	3.230625	0.825362	-0.946084
C	4.465275	1.593432	-0.558811
O	5.349384	1.742363	-1.640212
H	0.6554	0.084862	-1.308509
H	0.412732	0.908634	0.250148
H	0.418514	-0.869844	0.175344
H	3.828394	-0.105383	1.643799
H	2.290068	-0.938616	1.936401
H	2.366781	0.835291	2.027714
H	2.773226	-1.195252	-1.826952
H	4.143609	-1.188103	-0.600922
H	2.681764	1.308309	-1.763596
H	4.960999	1.109972	0.305846
H	4.194042	2.612225	-0.237071
H	5.48888	0.864108	-2.011555
