22

C	0.969483	-0.093861	0.066785
C	2.486982	0.027545	-0.082335
N	2.992236	-0.664979	-1.261685
C	3.022002	1.48766	-0.049645
C	2.610154	2.252556	-1.311471
C	2.487274	2.222383	1.182478
C	4.550713	1.438967	0.026747
H	0.598026	0.308727	1.020705
H	0.675737	-1.154432	0.021804
H	0.441489	0.428233	-0.74822
H	2.944575	-0.473022	0.791099
H	2.462355	-0.38212	-2.085308
H	2.842841	-1.667249	-1.167601
H	3.040021	1.794237	-2.215557
H	2.976546	3.289852	-1.26668
H	1.515674	2.297166	-1.430345
H	2.683812	1.650932	2.104973
H	1.404144	2.407803	1.121174
H	2.980697	3.201141	1.287259
H	4.882719	0.976842	0.971051
H	4.980658	2.452462	-0.017415
H	4.955663	0.841954	-0.802085
