15

O	1.013779	0.056634	-0.511512
C	2.019935	0.156344	0.378894
O	2.089982	-0.596414	1.3067
C	2.985101	1.284727	0.110844
C	2.434522	2.733403	0.214534
C	3.732938	3.122085	0.949254
C	4.009815	1.626555	1.200128
H	1.10179	0.742789	-1.184225
H	3.464515	1.115632	-0.869725
H	1.554966	2.78188	0.875586
H	2.195902	3.260176	-0.72216
H	4.468789	3.569684	0.263512
H	3.636272	3.776468	1.827668
H	5.036555	1.260691	1.059621
H	3.648048	1.279427	2.179071
