16

C	0.534591	-0.532141	0.379704
C	2.006113	-0.413393	0.036156
O	2.211305	-1.045879	-1.197918
C	2.440624	1.044987	-0.004231
O	3.850435	1.221555	-0.012329
N	4.420837	0.650721	-1.104646
C	5.675182	0.834596	-1.171431
H	0.318674	-0.148326	1.387901
H	0.236119	-1.588829	0.334822
H	-0.075356	0.018684	-0.353042
H	2.603532	-0.90051	0.838678
H	3.07141	-0.736925	-1.523918
H	2.116365	1.573915	0.903621
H	1.99141	1.538299	-0.885406
H	6.196818	0.394014	-2.024103
H	6.221192	1.411061	-0.412076
