20

C	0.955236	-0.111004	-0.005043
C	2.467939	0.051687	0.004938
C	3.012126	1.494814	-0.01145
C	2.560443	2.230241	-1.276748
C	2.539236	2.267005	1.223818
C	4.541573	1.425258	0.002346
H	0.679765	-1.176375	0.006263
H	0.497401	0.333166	-0.90239
H	0.483036	0.355619	0.873209
H	2.893461	-0.481894	-0.863976
H	2.879391	-0.45665	0.895503
H	2.877752	1.691436	-2.184654
H	2.998094	3.240025	-1.317723
H	1.466233	2.345355	-1.316596
H	2.840865	1.755498	2.152621
H	1.444551	2.383244	1.241512
H	2.976661	3.277522	1.242371
H	4.908128	0.905301	0.902304
H	4.98777	2.432684	-0.007784
H	4.922959	0.880549	-0.876542
