15

C	1.015548	-0.042785	0.005914
C	2.514662	-0.085274	-0.05887
C	3.264298	-0.637616	-1.218067
N	3.173001	0.789831	-1.003942
C	4.360267	1.472088	-0.553642
C	5.202164	1.883761	-1.679925
N	5.880819	2.197659	-2.562145
H	0.672346	0.797614	0.62923
H	0.616629	-0.972907	0.439352
H	0.591823	0.084884	-1.000199
H	3.019344	-0.20974	0.911931
H	2.729092	-1.021663	-2.093087
H	4.222469	-1.133564	-1.013881
H	4.992606	0.866848	0.133517
H	4.067382	2.379453	0.000673
