11

O	1.041115	-0.018585	-0.137705
C	2.363405	0.029814	0.007795
C	3.021172	1.270483	0.04303
C	4.389511	1.221197	0.197054
C	4.992389	-0.041608	0.30324
N	4.302261	-1.171292	0.260749
N	2.996537	-1.130777	0.113557
H	0.810235	-0.961293	-0.134562
H	2.456959	2.199962	-0.048599
H	4.990538	2.132608	0.236293
H	6.073417	-0.15078	0.428949
