16

C	0.86723	0.058267	-0.028445
C	2.330791	0.065449	-0.313292
C	3.231493	0.84584	0.305945
C	4.672169	0.873816	0.04582
C	5.231731	-0.046478	-0.999673
C	5.46271	1.712772	0.739678
H	0.527451	-0.941932	0.290637
H	0.283666	0.306827	-0.931452
H	0.599345	0.777456	0.759661
H	2.672168	-0.627893	-1.091757
H	2.876796	1.535562	1.082387
H	4.77704	0.149614	-1.984519
H	5.017814	-1.100018	-0.754319
H	6.320032	0.069739	-1.096385
H	5.050525	2.381702	1.500855
H	6.541571	1.757706	0.56749
