13

O	0.994064	-0.039149	0.134837
C	2.33707	0.034398	0.015759
C	3.022534	1.252157	-0.050446
C	4.410927	1.266017	-0.174036
C	5.128997	0.07329	-0.232784
C	4.439714	-1.139364	-0.165406
C	3.054582	-1.165802	-0.042023
H	0.628262	0.851194	0.162737
H	2.463898	2.192786	-0.005141
H	4.933553	2.22457	-0.225613
H	6.216483	0.087271	-0.332137
H	4.98972	-2.082872	-0.210456
H	2.503397	-2.106717	0.011558
