16

C	0.900726	0.013639	0.031327
C	2.41864	0.000533	0.032572
C	2.958592	-0.774033	1.236523
O	2.836794	-0.626554	-1.160988
C	2.967404	1.433119	0.019499
O	4.355573	1.441716	-0.223211
H	0.526672	0.549313	-0.853582
H	0.501565	0.495226	0.936854
H	0.518463	-1.016708	-0.012021
H	2.630146	-0.335174	2.192161
H	4.060826	-0.797795	1.221393
H	2.612733	-1.816379	1.191264
H	3.744181	-0.321688	-1.305165
H	2.703172	1.965462	0.953579
H	2.504273	1.975994	-0.819207
H	4.807781	1.182048	0.585902
