12

C	1.0208	0.031593	-0.154734
C	2.341206	-0.08317	0.051837
C	3.203867	-1.244958	0.198161
C	4.461348	-0.784141	0.388419
N	4.497567	0.604381	0.379284
C	3.232383	1.130113	0.176956
O	2.943132	2.301356	0.118941
H	0.577982	1.028313	-0.235348
H	0.371059	-0.842149	-0.246717
H	2.899102	-2.288286	0.162011
H	5.379837	-1.351396	0.537435
H	5.318315	1.180244	0.503147
