13

O	1.104603	-0.154412	-0.15709
C	2.476424	-0.039449	-0.013354
C	3.234128	-0.70785	-1.106607
O	2.518243	-1.321025	-2.101625
C	3.235757	0.81914	-1.019397
C	4.404878	1.54254	-0.617456
C	5.395987	2.142613	-0.25766
H	0.692476	0.687004	0.066523
H	2.86629	-0.072837	1.012531
H	4.176134	-1.209977	-0.863152
H	1.584325	-1.221264	-1.862365
H	2.60064	1.289106	-1.780464
H	6.277654	2.67104	0.053985
