20

C	2.968617	-1.119489	-0.613071
C	2.386045	0.133165	0.026216
C	3.36496	1.278732	0.046053
C	3.532785	2.270834	-1.057326
C	2.737998	2.276238	-2.334175
N	2.86611	2.62567	0.173357
C	3.530556	3.521271	1.082656
H	2.250365	-1.953457	-0.596706
H	3.876826	-1.453224	-0.085899
H	3.247899	-0.936267	-1.662745
H	2.076018	-0.080692	1.063706
H	1.471666	0.44822	-0.499157
H	4.297049	1.054178	0.59171
H	4.56304	2.645773	-1.168976
H	1.730089	1.86803	-2.179317
H	3.240631	1.681155	-3.113079
H	2.62477	3.303613	-2.714665
H	3.131326	3.38339	2.099753
H	3.338117	4.564534	0.785364
H	4.632263	3.374407	1.124711
