15

C	0.998661	0.001137	0.161473
C	2.472514	0.021413	-0.029952
C	3.301397	-1.012229	-0.285145
O	4.604193	-0.697052	-0.411258
C	4.713254	0.715997	-0.22885
C	3.310073	1.215852	0.030649
C	2.933206	2.483055	0.264601
H	0.591099	-1.016041	0.074942
H	0.492113	0.636061	-0.584682
H	0.722978	0.395332	1.154021
H	3.066316	-2.071383	-0.406162
H	5.156964	1.152425	-1.13909
H	5.398319	0.908003	0.61346
H	3.654119	3.303771	0.289161
H	1.884192	2.731128	0.44104
