11

N	0.974403	-0.033123	0.005829
C	2.312122	0.026195	-0.057552
C	3.077995	1.150602	0.033035
C	4.518567	1.123229	-0.043255
O	5.252592	2.086304	0.027392
C	5.130555	-0.225253	-0.224157
N	5.637059	-1.257113	-0.366742
H	0.488373	-0.913467	-0.072627
H	0.418699	0.801058	0.137503
H	2.806002	-0.943242	-0.196407
H	2.637094	2.14143	0.170329
