14

O	1.145002	0.141173	0.554559
N	2.383313	0.019294	-0.033997
C	2.963591	1.145391	-0.141355
C	4.33731	1.29273	-0.753147
C	4.567121	2.774511	-0.666032
C	3.539647	3.418565	-0.100929
C	2.430087	2.488246	0.293057
H	0.822953	-0.765446	0.576009
H	4.365358	0.913845	-1.789909
H	5.094171	0.712587	-0.19579
H	5.480334	3.251471	-1.028545
H	3.495865	4.497646	0.064558
H	2.208651	2.493356	1.375962
H	1.465907	2.708912	-0.199901
