16

C	0.966307	-0.039742	0.233276
C	2.455992	0.0374	-0.062272
C	2.741115	0.036976	-1.556052
C	3.228274	1.117537	0.749787
C	3.957819	-0.054803	1.419577
O	4.810962	-0.176838	2.255338
N	3.245983	-0.954581	0.678891
H	0.783445	-0.040612	1.318209
H	0.530481	-0.95978	-0.188589
H	0.434948	0.815578	-0.211769
H	3.823523	0.08722	-1.746791
H	2.258371	0.896368	-2.046355
H	2.351365	-0.87889	-2.029145
H	2.617885	1.719062	1.438438
H	3.883337	1.775278	0.160812
H	3.268675	-1.969043	0.648477
