17

C	1.020145	0.069821	-0.116721
C	2.508894	-0.074746	-0.019165
C	3.007744	-1.48726	-0.082796
C	3.30123	1.011305	0.111673
C	4.744416	1.043205	0.218032
N	5.357716	2.164847	0.340989
N	6.694904	2.179364	0.377568
H	0.701722	1.120472	-0.069047
H	0.514399	-0.480368	0.69646
H	0.641803	-0.361251	-1.060738
H	2.560005	-2.092732	0.72427
H	4.099099	-1.575537	-0.003089
H	2.699811	-1.962656	-1.03062
H	2.83446	2.001581	0.144985
H	5.311843	0.094073	0.188012
H	7.06554	3.011807	0.818317
H	7.170558	1.319815	0.660628
