15

C	1.401216	0.412646	-0.213218
C	2.698916	-0.213521	0.19548
C	2.865121	-1.728141	0.204389
C	4.344735	-1.927829	0.007272
C	4.991274	-0.766259	-0.160897
C	4.034978	0.368167	-0.026447
O	3.399501	0.417906	1.252486
H	1.485109	1.508343	-0.195422
H	0.59752	0.119548	0.481029
H	1.110445	0.092819	-1.225254
H	2.277707	-2.205966	-0.599517
H	2.510062	-2.15567	1.157787
H	4.817274	-2.913161	0.030207
H	6.063584	-0.649582	-0.328694
H	4.201406	1.337411	-0.510251
