15

O	1.024335	0.368488	-0.287858
C	2.325452	-0.15403	-0.252975
C	3.280213	1.00481	-0.021985
C	4.727057	0.584562	0.017701
C	5.493712	0.715951	1.114198
C	5.264375	0.020722	-1.185515
C	5.683287	-0.453337	-2.221998
H	0.411823	-0.34922	-0.471958
H	2.594421	-0.6648	-1.199622
H	2.454999	-0.896112	0.561813
H	3.009442	1.503701	0.921147
H	3.124536	1.735649	-0.833592
H	5.083767	1.148152	2.030768
H	6.539484	0.401826	1.118261
H	6.060519	-0.869382	-3.137806
