17

C	2.45931	0.054489	1.712597
C	2.487343	0.278045	0.206461
N	2.990167	1.576354	-0.190727
C	2.099043	2.701995	-0.110369
C	4.340129	1.786588	-0.202678
N	5.185035	0.865408	0.073893
O	6.482972	1.314185	-0.129199
H	2.061639	-0.94456	1.947994
H	1.823786	0.795253	2.223012
H	3.476699	0.122605	2.123752
H	1.476306	0.166748	-0.221263
H	3.130503	-0.479977	-0.266544
H	1.173265	2.494526	-0.671163
H	2.57094	3.587859	-0.559916
H	1.814618	2.964366	0.927234
H	4.673573	2.793038	-0.498642
H	7.011233	0.563716	0.156248
