12

O	1.202132	0.049387	0.553559
C	2.335875	-0.003888	0.179767
N	3.242019	0.930722	-0.225721
C	4.31058	0.003049	-0.550019
C	3.388865	-1.138417	-0.034478
C	3.04235	-2.209542	-0.941729
C	2.737441	-3.099941	-1.703778
H	3.156773	1.935895	-0.331586
H	4.544051	-0.067191	-1.623768
H	5.2385	0.146124	0.025683
H	3.717195	-1.538684	0.938998
H	2.462581	-3.890264	-2.37773
