20

C	2.256643	-0.544655	-1.407263
C	2.470967	0.03685	-0.018824
C	3.251462	1.335938	-0.040332
C	2.596976	2.612812	-0.602971
C	3.232353	3.323844	0.601897
N	3.401017	2.024838	1.240593
C	4.549022	1.774688	2.058325
H	1.687759	-1.485634	-1.36981
H	3.216257	-0.755597	-1.906294
H	1.698686	0.154922	-2.05097
H	3.008215	-0.688062	0.617924
H	1.506445	0.228051	0.481352
H	4.238328	1.166474	-0.532621
H	1.498867	2.572157	-0.540423
H	2.896745	2.942465	-1.606303
H	4.197707	3.805507	0.332099
H	2.624949	4.055328	1.16258
H	4.561119	0.723283	2.385212
H	4.514987	2.399084	2.965039
H	5.513276	1.98193	1.537741
