14

C	1.091148	0.040152	0.063273
C	2.577932	-0.026585	-0.005475
N	3.24781	-1.107996	-0.13313
C	4.65325	-0.728815	-0.095232
C	4.684504	0.806969	-0.255776
N	3.322319	1.136937	0.129385
H	0.675094	-0.968729	-0.034891
H	0.685395	0.677648	-0.739047
H	0.771682	0.474418	1.023619
H	5.083338	-1.034486	0.876951
H	5.232123	-1.252563	-0.872042
H	4.895428	1.101022	-1.302451
H	5.430284	1.297056	0.388326
H	2.918373	2.010752	-0.184989
