12

N	0.883856	-0.025159	-0.002051
C	2.260703	0.000222	-0.001289
C	3.079562	1.095635	-0.00337
O	2.772375	2.405221	-0.006265
O	4.381397	0.743189	-0.002301
C	4.427595	-0.612764	0.000662
C	3.162028	-1.118861	0.001416
H	0.35914	0.832645	-0.001402
H	0.386493	-0.897724	0.003808
H	3.59262	2.910937	-0.006993
H	5.41478	-1.064274	0.001925
H	2.88703	-2.172086	0.00358
