21

C	1.453222	-1.409976	0.320496
C	2.908336	-1.057347	0.610619
C	3.834553	-2.203435	0.216581
C	3.28459	0.25803	-0.078046
C	4.698347	0.773511	0.206467
C	4.949275	1.038768	1.657533
C	5.901208	0.470788	2.399913
H	0.770354	-0.602935	0.630664
H	1.148733	-2.327799	0.847213
H	1.298148	-1.580088	-0.75851
H	3.011261	-0.904173	1.701053
H	3.821094	-2.3636	-0.875366
H	3.522468	-3.144885	0.69444
H	4.876326	-2.015002	0.516299
H	2.556775	1.033411	0.223118
H	3.161456	0.138218	-1.169988
H	4.839004	1.712833	-0.357794
H	5.453591	0.06931	-0.179654
H	4.270278	1.760278	2.133478
H	6.598515	-0.257163	1.970963
H	6.025758	0.713654	3.45848
