17

C	0.878962	0.11747	-0.316916
C	2.276184	-0.268568	0.126042
N	3.17875	0.858328	-0.042578
N	4.501502	0.610356	0.259785
C	4.916971	0.316471	1.609112
C	5.411523	0.711396	-0.755839
O	6.602036	0.53875	-0.643227
H	0.190056	-0.735169	-0.227442
H	0.884828	0.458413	-1.362603
H	0.475386	0.9349	0.302972
H	2.661814	-1.09218	-0.496747
H	2.244946	-0.647787	1.168762
H	2.847884	1.674643	0.473388
H	4.619717	1.126986	2.29776
H	6.011897	0.230947	1.60444
H	4.488525	-0.630698	1.97521
H	4.894869	0.97609	-1.707477
