16

C	2.019388	-0.220535	-0.047281
C	0.695984	-0.864056	0.233927
C	-0.440151	-1.521288	-0.499444
C	-1.593651	-0.569542	-0.1932
C	-1.442435	0.68478	0.274376
C	-0.087495	1.354282	0.454512
N	0.795289	0.47839	-0.24698
H	2.594312	-0.410297	-0.962214
H	2.640021	-0.041247	0.846717
H	0.54162	-0.943506	1.328143
H	-0.680383	-2.536153	-0.139814
H	-0.256185	-1.583615	-1.585193
H	-2.61096	-0.95392	-0.325934
H	-2.331267	1.275883	0.51682
H	0.143964	1.482765	1.538452
H	-0.101092	2.362969	0.005963
