17

C	1.012014	-0.06378	0.477258
C	2.405375	0.010583	-0.114686
C	2.65012	1.283501	-0.91935
C	4.054009	1.254579	-1.516722
C	4.408866	-0.128846	-1.98725
N	3.742749	-1.193927	-1.741864
N	2.617312	-1.114938	-1.005484
H	0.840802	0.767446	1.177701
H	0.8639	-1.003686	1.033369
H	0.252794	-0.01528	-0.318665
H	3.150564	-0.014044	0.712057
H	2.503128	2.171425	-0.28486
H	1.897569	1.32714	-1.724483
H	4.803247	1.589131	-0.775959
H	4.137612	1.962685	-2.358905
H	5.299232	-0.261126	-2.613685
H	2.365627	-2.021853	-0.630222
