14

N	0.903369	0.084181	0.125081
C	2.333821	0.010045	0.002199
C	3.148953	0.967277	0.878163
O	3.898697	-0.107174	1.442641
C	3.022648	-1.07625	0.860903
C	3.697489	-2.173269	0.18254
C	4.229312	-3.098857	-0.389724
H	0.465567	-0.675677	-0.393878
H	0.558684	0.945618	-0.295871
H	2.724374	-0.019008	-1.033982
H	2.52417	1.484621	1.62946
H	3.792339	1.699541	0.362536
H	2.314157	-1.481186	1.610244
H	4.707531	-3.91921	-0.892832
