16

C	0.994696	-0.017963	-0.053708
C	2.497557	-0.074309	-0.053384
C	3.249661	-0.747571	-1.161635
C	3.305027	0.747711	-1.035572
C	4.519115	1.473053	-0.594427
C	5.748679	0.965509	-0.480755
H	0.622813	0.835589	0.535448
H	0.560669	-0.935417	0.375662
H	0.601738	0.085958	-1.077571
H	2.956854	-0.166865	0.937961
H	2.673324	-1.161906	-1.994334
H	4.141112	-1.325684	-0.906166
H	2.692108	1.306196	-1.754384
H	4.357825	2.524865	-0.324834
H	5.971414	-0.070503	-0.752687
H	6.581307	1.571888	-0.115725
