16

C	1.104797	0.3193	-0.660422
C	2.456445	0.25133	-0.056054
N	3.281845	1.220903	-0.163501
N	4.548919	1.109516	0.42552
C	5.24808	-0.143757	0.164159
C	5.325271	2.273669	0.020053
H	0.960953	-0.477536	-1.412742
H	0.943017	1.283975	-1.160996
H	0.295556	0.116299	0.059824
H	2.718924	-0.668598	0.498819
H	4.674007	-1.013902	0.496793
H	6.194856	-0.133608	0.726494
H	5.537637	-0.25266	-0.899995
H	4.763945	3.167754	0.31635
H	5.492158	2.305971	-1.072428
H	6.305039	2.272415	0.519026
