19

C	1.435684	0.163332	-0.464907
C	2.939331	0.225636	-0.361763
O	3.328545	1.577461	-0.327609
C	4.658119	1.816912	-0.240416
C	5.17073	3.052573	-0.148258
C	4.29915	4.269653	-0.128731
C	6.651203	3.25996	-0.061954
H	1.092801	-0.880932	-0.494746
H	1.090811	0.67072	-1.377972
H	0.969111	0.659809	0.398684
H	3.409377	-0.286024	-1.225031
H	3.28791	-0.296107	0.551568
H	5.306792	0.930963	-0.25312
H	3.235389	4.005214	-0.191213
H	4.541415	4.941662	-0.970814
H	4.460143	4.854508	0.79407
H	7.207262	2.311007	-0.084102
H	6.926763	3.790548	0.86685
H	7.016593	3.884846	-0.896186
