11

C	0.815231	-0.327799	-0.043447
C	2.131037	-0.189736	-0.166798
O	2.814708	0.651686	0.674078
C	4.14969	0.765249	0.522258
O	4.801639	0.183661	-0.299378
C	4.691022	1.69277	1.495662
C	5.193866	2.458789	2.286199
H	0.279218	-0.998486	-0.71566
H	0.2574	0.218374	0.720138
H	2.752521	-0.702524	-0.904628
H	5.644678	3.139226	2.986915
