15

C	0.980946	0.050532	-0.609275
C	2.366606	0.033267	-0.038031
C	2.977252	-1.071986	0.400422
C	3.029908	1.367836	0.038961
C	3.11916	2.126571	1.316883
N	4.286955	1.477193	0.75
H	0.981131	0.45789	-1.634846
H	0.31866	0.70162	-0.01352
H	0.539676	-0.955261	-0.640949
H	2.480705	-2.045599	0.366282
H	3.988936	-1.011601	0.808687
H	2.895929	1.986446	-0.860709
H	2.73035	1.665071	2.230965
H	3.035889	3.219685	1.280262
H	4.904607	2.149367	0.299368
