13

C	0.863564	0.002044	-0.13671
C	2.203522	0.007169	0.02813
C	3.006554	1.223006	0.126404
C	4.338328	1.171039	0.290226
O	5.044545	0.018021	0.377719
C	4.34696	-1.140359	0.291887
C	3.015614	-1.202492	0.128115
H	0.307456	-0.935357	-0.205764
H	0.300486	0.935168	-0.2071
H	2.5261	2.201645	0.066391
H	4.986172	2.044937	0.369864
H	5.001284	-2.009298	0.372795
H	2.542455	-2.18476	0.069503
