12

O	0.900024	0.84529	-0.869817
N	2.248647	0.745127	-0.996931
C	2.903483	1.192205	-0.00861
C	4.410329	1.131869	-0.10187
O	4.837651	0.490085	-1.26009
C	4.942762	2.502321	0.025404
C	5.374294	3.628143	0.132367
H	0.561842	0.460591	-1.68585
H	2.422426	1.632143	0.87586
H	4.773484	0.561269	0.778093
H	4.053054	0.419495	-1.827401
H	5.764814	4.625093	0.223905
