10

O	2.603507	1.047097	0.585844
C	2.398057	0.098186	-0.117689
C	3.004993	-1.274116	0.117072
C	2.052932	-2.363304	-0.032125
C	1.236547	-3.245664	-0.165562
C	1.54385	0.231544	-1.316833
N	0.88603	0.379808	-2.257783
H	3.457103	-1.253538	1.120607
H	3.829635	-1.390484	-0.611766
H	0.515806	-4.034298	-0.285335
