12

C	0.950488	-0.063541	-0.004033
C	2.419964	0.093172	-0.005043
C	3.233612	1.193312	-0.000862
O	2.820767	2.476635	0.006014
C	4.544454	0.643295	-0.005533
N	4.507946	-0.665486	-0.011353
O	3.196497	-1.00456	-0.011687
H	0.48104	0.928407	0.006828
H	0.609013	-0.624467	0.880134
H	0.605551	-0.606136	-0.8983
H	3.585469	3.059598	0.008358
H	5.506452	1.15775	-0.004372
