13

C	4.733872	-1.098876	-0.083278
O	3.83242	-0.163809	-0.61428
C	3.822953	1.05984	0.018842
C	5.029973	1.935679	-0.289992
O	5.944433	1.579938	-0.991344
C	4.995507	3.253156	0.339649
C	4.940626	4.339038	0.876494
H	4.578241	-2.04296	-0.622505
H	4.544171	-1.276784	0.994179
H	5.783396	-0.786597	-0.215382
H	3.745309	0.978047	1.126644
H	2.92522	1.614328	-0.308048
H	4.903489	5.306131	1.346211
