15

N	1.005016	0.150648	-0.292687
C	2.382012	0.043492	0.169022
C	3.161272	1.299535	-0.209009
C	3.49644	1.179597	-1.677672
O	4.342346	0.06195	-1.91608
N	3.971719	-1.118836	-1.371587
C	3.064984	-1.137164	-0.470152
H	0.469005	0.746785	0.336127
H	0.548066	-0.759258	-0.296061
H	2.460972	-0.12051	1.265035
H	2.561765	2.202589	-0.015953
H	4.087032	1.372001	0.383891
H	4.050281	2.042208	-2.071762
H	2.558338	1.050798	-2.248585
H	2.827312	-2.144796	-0.106869
