17

N	1.093017	0.054533	-0.67991
C	2.489002	-0.083791	-0.311556
C	3.022557	1.248754	0.233191
N	2.241639	1.768181	1.33359
C	4.47226	1.106215	0.63412
C	5.074155	1.923902	1.683838
O	4.708303	0.574897	1.924706
H	0.655708	-0.852007	-0.820924
H	1.002742	0.56157	-1.558579
H	3.147344	-0.43955	-1.133931
H	2.567655	-0.830675	0.497508
H	2.993715	1.985282	-0.596146
H	2.413476	1.17158	2.1449
H	1.258383	1.642634	1.092162
H	5.129526	0.700626	-0.149633
H	4.449807	2.67534	2.179809
H	6.153601	2.122389	1.663337
