16

N	0.98737	-0.018343	0.062264
C	2.424824	0.043006	0.030467
C	3.111335	1.089362	0.924587
C	4.177637	0.036141	1.275253
C	3.171087	-1.054588	0.831326
C	3.63394	-2.248865	0.151616
C	4.025858	-3.243862	-0.4202
H	0.662312	-0.816997	-0.481696
H	0.592148	0.807053	-0.386241
H	2.868448	0.085304	-0.986652
H	2.466132	1.315412	1.78729
H	3.441058	2.030868	0.461326
H	5.041777	0.075444	0.596227
H	4.542408	-0.014412	2.310689
H	2.527083	-1.333582	1.682913
H	4.373145	-4.126212	-0.92476
