12

N	0.922494	0.010645	0.279077
C	2.188549	-0.015866	0.288577
N	2.921726	1.14366	0.147172
C	4.2804	1.213001	0.142152
C	5.006948	2.345828	-0.001369
C	6.424705	2.321529	0.004744
N	7.586581	2.311646	0.008405
H	0.542589	-0.928334	0.39404
H	2.82506	-0.91265	0.403567
H	2.372412	1.991898	0.035678
H	4.788032	0.251251	0.267402
H	4.521923	3.318522	-0.129533
