13

C	1.046345	-0.052977	-0.176914
C	2.366428	0.002005	0.078945
N	3.219875	-1.06236	0.33139
C	4.526508	-0.642323	0.556839
N	5.574707	-1.320607	0.818405
C	4.473767	0.826263	0.430391
C	3.211054	1.197753	0.151428
H	0.501873	-0.998812	-0.210358
H	0.492389	0.867623	-0.360493
H	2.925179	-2.027703	0.353379
H	5.37184	-2.322826	0.858399
H	5.356812	1.449628	0.556321
H	2.829112	2.206054	-0.004442
