17

C	0.49464	1.879728	-0.309618
N	1.674437	1.085241	-0.131456
C	2.924579	1.635678	-0.01671
N	3.217841	2.877984	0.05308
C	4.035192	0.60606	0.084019
C	3.966786	-0.438596	-0.985435
C	3.74079	-1.737973	-0.776697
H	-0.382986	1.223152	-0.376036
H	0.528117	2.500437	-1.225835
H	0.334836	2.557885	0.54691
H	1.635473	0.104233	-0.377593
H	2.382188	3.46449	-0.007324
H	3.985605	0.131265	1.078664
H	4.976071	1.171695	0.026979
H	4.095837	-0.077996	-2.014116
H	3.612187	-2.137676	0.235273
H	3.694505	-2.452387	-1.603148
