12

C	1.003045	-0.019047	-0.067617
C	2.493739	0.106726	0.011032
O	3.246261	-0.502765	-1.012504
C	3.262435	0.913628	-0.95513
C	4.50236	1.559977	-0.595756
C	5.532531	2.124716	-0.30117
H	0.514549	0.717544	0.58798
H	0.687982	-1.023252	0.255198
H	0.651755	0.133798	-1.098283
H	2.93474	-0.001187	1.013151
H	2.702258	1.410273	-1.760819
H	6.450387	2.618659	-0.039711
