14

C	0.966388	-0.040332	-0.180489
C	2.467045	-0.012382	0.014923
O	3.030936	0.244344	-1.255267
C	3.041937	-1.259309	0.693954
O	4.081828	-0.78455	1.548788
N	3.89649	0.550249	1.777789
C	2.978429	1.001663	1.015255
H	0.439457	-0.183562	0.772444
H	0.695638	-0.854155	-0.869791
H	0.636833	0.905959	-0.632783
H	3.983967	0.347039	-1.147405
H	3.463199	-1.968306	-0.032241
H	2.282757	-1.767566	1.313737
H	2.716597	2.061729	1.042467
