17

C	1.161818	0.166968	0.462465
C	2.568218	0.098524	-0.077853
N	3.154529	-0.922385	-0.58168
N	3.255748	1.275308	0.0037
C	2.80324	2.653158	0.073876
C	4.193094	3.08695	-0.443344
C	4.514435	1.58902	-0.642295
H	1.151715	0.585975	1.48048
H	0.706734	-0.831644	0.486886
H	0.534869	0.819781	-0.166284
H	2.540351	-1.735191	-0.543159
H	2.526472	3.003313	1.083733
H	1.970314	2.893259	-0.614119
H	4.186725	3.698496	-1.355156
H	4.813606	3.581961	0.316089
H	4.554716	1.247006	-1.691597
H	5.402826	1.19578	-0.121802
