14

O	1.035664	-0.054791	-0.03626
C	2.442394	0.00511	-0.003688
C	2.954474	-1.212009	-0.787181
C	3.222568	-0.662132	-2.158601
C	3.232823	0.673763	-2.159852
C	2.979435	1.223871	-0.78525
H	0.692374	0.731082	0.400447
H	2.807668	0.0007	1.041839
H	2.195693	-2.010919	-0.766615
H	3.875467	-1.626805	-0.339435
H	3.414215	-1.292638	-3.030251
H	3.430662	1.301737	-3.031976
H	3.913417	1.612372	-0.338557
H	2.255467	2.05773	-0.769909
