15

O	0.987225	0.030667	0.05389
C	2.397161	-0.029035	-0.034512
C	2.988621	-1.28851	0.616836
C	3.283526	-0.904975	2.077233
O	4.382778	-1.563708	2.649536
C	3.413074	0.596211	1.990451
C	2.952915	1.072958	0.832151
H	0.627211	-0.600411	-0.577562
H	2.716533	0.076368	-1.090782
H	3.950159	-1.537458	0.13701
H	2.328886	-2.163223	0.513838
H	2.427625	-1.15619	2.728397
H	5.167328	-1.305252	2.152087
H	3.804655	1.189718	2.82112
H	2.884923	2.126731	0.551606
