17

C	1.058717	0.019598	0.26545
C	2.55441	-0.126569	0.06858
N	3.243974	1.102095	0.412784
C	4.674682	1.097639	0.227637
C	5.264444	2.477397	0.499235
C	5.359403	0.068573	1.050775
N	5.832504	-0.745251	1.725461
H	0.530803	-0.895411	-0.040892
H	0.668772	0.863887	-0.322201
H	0.813265	0.201847	1.324491
H	2.769164	-0.345183	-0.99205
H	2.926097	-1.001419	0.643594
H	3.017962	1.384754	1.36541
H	4.875402	0.827889	-0.825154
H	5.101864	2.768072	1.548609
H	4.765706	3.211495	-0.147585
H	6.346262	2.494547	0.305937
