15

C	0.963906	-0.088117	0.037727
C	2.483257	-0.053837	0.020065
C	3.050908	1.36417	-0.046866
C	4.546	1.402485	-0.024318
C	5.324613	1.889551	-0.991927
H	0.581607	-1.118905	0.081905
H	0.542578	0.384113	-0.864616
H	0.561216	0.454215	0.908653
H	2.864708	-0.631101	-0.839921
H	2.879056	-0.560578	0.91839
H	2.660495	1.940133	0.813636
H	2.676744	1.872866	-0.952425
H	5.020639	0.972778	0.868725
H	4.898228	2.32341	-1.902834
H	6.415216	1.876769	-0.911673
