13

N	0.882197	0.0026	0.125107
C	2.330203	0.001226	0.033514
C	2.910404	1.175422	-0.705531
C	3.7664	0.731934	-1.646193
C	3.765089	-0.73473	-1.644996
C	2.908341	-1.175193	-0.703609
H	0.569301	0.816494	0.651171
H	0.567847	-0.809836	0.652552
H	2.848195	0.001575	1.028786
H	2.68145	2.214658	-0.462307
H	4.373462	1.351284	-2.309785
H	4.371058	-1.356258	-2.307551
H	2.677572	-2.213615	-0.458658
