20

C	1.441542	-1.000735	1.79663
C	2.92229	-0.690936	1.652865
C	3.227525	0.231511	0.484205
N	4.647804	0.470127	0.348762
C	5.044855	1.313905	-0.760291
C	6.543291	1.155958	-0.969998
O	6.869197	-0.193824	-1.093822
H	1.251	-1.668734	2.649969
H	1.046988	-1.494486	0.893792
H	0.85108	-0.083984	1.954169
H	3.502295	-1.619684	1.522846
H	3.296856	-0.228017	2.584393
H	2.643266	1.172812	0.595955
H	2.868191	-0.233148	-0.45148
H	5.02014	0.845931	1.220388
H	4.769371	2.383327	-0.638335
H	4.52421	0.948264	-1.661749
H	7.081488	1.637137	-0.121318
H	6.859569	1.689858	-1.88187
H	6.258803	-0.632769	-0.47748
