14

C	0.951258	-0.074043	-1.13237
C	1.980311	-0.189754	-0.037684
O	1.642043	0.748721	0.97385
C	2.408464	0.842723	2.075293
C	2.17421	1.768737	3.018752
C	3.499003	-0.089512	2.237118
N	4.374837	-0.838462	2.36464
H	1.176769	-0.784556	-1.940502
H	0.944191	0.942201	-1.552318
H	-0.054067	-0.294216	-0.74443
H	2.994383	0.022695	-0.422443
H	1.994646	-1.210351	0.385366
H	1.34872	2.471275	2.892105
H	2.798763	1.817212	3.909343
