14

C	0.553566	-1.668883	0.065429
C	1.702531	-0.696998	0.171259
O	1.189559	0.606147	0.242739
C	2.156613	1.596229	0.340845
C	1.477234	2.942768	0.40146
O	2.069252	3.982334	0.488967
H	0.92398	-2.702704	0.005717
H	-0.045168	-1.459474	-0.833593
H	-0.105159	-1.583042	0.942532
H	2.378469	-0.795215	-0.704441
H	2.318551	-0.916123	1.068836
H	2.854379	1.601882	-0.525362
H	2.790886	1.487613	1.247637
H	0.357597	2.882927	0.355785
