20

C	1.785655	-0.654992	-1.072163
C	2.750001	-0.264048	0.044481
C	2.994547	1.211726	0.11038
C	4.181035	1.800107	-0.064758
C	4.48501	3.272998	-0.018652
C	3.283716	4.150976	0.318455
N	5.634161	3.466278	0.858055
H	1.595039	-1.739122	-1.078128
H	2.189456	-0.374244	-2.057433
H	0.814699	-0.146919	-0.958555
H	3.709383	-0.792487	-0.080981
H	2.334917	-0.604533	1.01104
H	2.107188	1.830825	0.295668
H	5.065865	1.176476	-0.245925
H	4.827605	3.549916	-1.035684
H	2.888921	3.904654	1.318104
H	2.465214	4.034468	-0.409181
H	3.578221	5.212176	0.325182
H	5.371369	3.240485	1.817304
H	5.916198	4.444851	0.858642
