16

C	0.864667	-1.233896	0.864925
C	1.153624	-0.341391	-0.314334
N	0.98769	1.078183	-0.329162
C	-0.171588	1.631165	0.346635
C	-1.41048	0.820964	0.114311
C	-1.364129	-0.479493	-0.195152
C	-0.076186	-1.196356	-0.330266
H	1.479614	-2.126467	1.01295
H	0.491528	-0.77788	1.786913
H	1.966803	-0.664387	-0.973904
H	1.834492	1.535179	-0.005241
H	-0.028937	1.73102	1.44844
H	-0.333396	2.659689	-0.020204
H	-2.372012	1.326393	0.243015
H	-2.289169	-1.044134	-0.344941
H	-0.080162	-2.073641	-0.984065
