19

C	1.529766	-0.435098	0.995946
C	2.10266	0.336656	-0.183156
C	3.148292	1.333589	0.235194
O	3.497985	2.332286	-0.702539
C	2.838253	2.743376	0.483113
C	3.630242	3.61317	1.419521
C	3.807953	5.024547	0.877416
H	0.782037	-1.172957	0.668946
H	1.041613	0.240323	1.716665
H	2.317552	-0.982094	1.538867
H	1.306947	0.873842	-0.72488
H	2.554046	-0.360456	-0.910344
H	4.005895	0.907581	0.780925
H	1.795281	3.061515	0.321061
H	4.614799	3.145928	1.586245
H	3.11934	3.636061	2.397847
H	4.32403	4.997314	-0.094317
H	4.400621	5.649467	1.562359
H	2.836177	5.521279	0.725962
