15

C	0.982394	-0.184442	0.169188
C	2.440513	-0.30191	-0.161525
C	3.008887	-1.474847	-0.500535
C	3.267957	0.898151	-0.114984
C	2.85768	2.140436	0.214038
C	3.79396	3.267542	0.222021
O	3.496937	4.402843	0.505973
H	0.479683	0.520003	-0.512943
H	0.839446	0.201804	1.191159
H	0.47494	-1.155401	0.095823
H	2.427352	-2.399234	-0.549075
H	4.073488	-1.541555	-0.741486
H	4.325662	0.76208	-0.375974
H	1.823634	2.369605	0.48842
H	4.846255	2.998296	-0.064231
