15

N	1.291775	-0.03769	0.648137
N	2.596451	0.175445	0.305489
C	2.927269	1.361162	-0.068611
C	1.927383	2.498735	-0.077782
O	1.307716	2.683029	1.164268
C	4.321192	1.617409	-0.458143
C	5.243151	0.673982	-0.68402
H	0.601727	0.362681	0.004888
H	1.123696	-1.031663	0.761187
H	1.186512	2.318548	-0.892928
H	2.43227	3.439628	-0.341657
H	1.081914	1.803381	1.50378
H	4.593673	2.672476	-0.57148
H	4.988173	-0.385442	-0.590425
H	6.267387	0.938278	-0.956433
