12

C	0.973477	-0.078762	0.01411
N	2.403299	0.041688	-0.132936
C	2.8995	1.390261	-0.13682
C	4.402855	1.430723	0.003804
O	5.102112	2.308975	-0.421347
H	0.682339	-1.139353	-0.011568
H	0.38002	0.45678	-0.757779
H	0.664443	0.319113	0.995012
H	2.713901	-0.449459	-0.967905
H	2.50798	1.911617	0.759394
H	2.610078	2.022257	-1.004711
H	4.820395	0.55584	0.570575
