15

N	1.930186	1.627229	0.794173
C	2.393143	2.889366	0.589717
S	1.502799	4.235022	1.008668
N	3.633811	2.994713	0.056273
C	4.532831	1.915035	-0.276902
C	5.957982	2.371148	-0.21308
C	6.817275	2.305377	-1.229471
H	2.288177	0.840092	0.268526
H	0.974989	1.57002	1.119676
H	3.922082	3.946143	-0.137674
H	4.319491	1.488008	-1.276869
H	4.391228	1.105584	0.462272
H	6.276032	2.785759	0.75135
H	6.52007	1.904411	-2.204133
H	7.850754	2.645363	-1.125568
