20

C	0.880692	-0.491542	0.498094
C	2.296711	-0.301745	-0.035363
C	2.758866	-1.521864	-0.823065
C	2.46344	1.020079	-0.837347
N	3.838639	1.38237	-1.113274
C	1.64285	1.027195	-2.099809
C	2.06239	1.459411	-3.289691
H	0.524608	0.404161	1.032284
H	0.837812	-1.339244	1.199896
H	0.163413	-0.707027	-0.309905
H	2.963334	-0.188876	0.840433
H	2.127302	-1.681642	-1.711544
H	2.711581	-2.433426	-0.207219
H	3.798668	-1.414874	-1.16902
H	2.046604	1.817951	-0.189457
H	4.286304	0.667582	-1.685364
H	4.37023	1.443968	-0.248267
H	0.618325	0.652022	-2.001917
H	3.068696	1.866556	-3.416114
H	1.405436	1.440097	-4.163372
