18

C	1.131438	-0.310398	0.55194
N	2.544848	-0.022594	0.508863
C	2.898388	1.351697	0.207476
C	2.432061	2.298153	1.303797
C	4.424767	1.406976	0.039435
C	4.936236	2.706253	-0.371639
C	5.352318	3.792614	-0.709432
H	0.97993	-1.396042	0.646243
H	0.564395	0.03621	-0.341014
H	0.661846	0.151764	1.434352
H	2.992153	-0.635655	-0.168355
H	2.445053	1.694245	-0.752515
H	2.817178	1.960816	2.27926
H	1.33509	2.343792	1.363663
H	2.797966	3.317053	1.110899
H	4.732108	0.654569	-0.709408
H	4.890513	1.100948	0.992111
H	5.72348	4.755388	-1.007605
