13

O	0.93794	-0.074652	0.516322
C	2.100482	-0.021728	0.197314
C	2.831633	1.220155	-0.253298
C	4.316305	1.168154	0.097266
N	4.962928	-0.074231	-0.270833
C	4.247377	-1.116909	-0.202986
N	2.901489	-1.149993	0.1504
H	2.323699	2.095332	0.173342
H	2.705519	1.272963	-1.35003
H	4.449086	1.305181	1.188058
H	4.847829	2.005949	-0.377802
H	4.682791	-2.101988	-0.420719
H	2.439363	-2.037033	0.319886
