13

C	1.150994	-0.013365	-0.050904
N	2.591292	-0.052063	-0.051732
C	3.250669	-0.717373	-1.13712
C	3.274999	0.774841	-1.025
C	4.445964	1.509122	-0.611766
C	5.428592	2.132846	-0.275665
H	0.805792	0.840179	0.55196
H	0.762577	-0.934145	0.410909
H	0.705695	0.075291	-1.065745
H	2.638258	-1.130274	-1.951634
H	4.146744	-1.295057	-0.887488
H	2.64383	1.302959	-1.756195
H	6.300853	2.681569	0.02805
