17

C	4.616108	-1.653459	-0.569636
N	4.531913	-0.520383	0.309469
N	4.863319	0.661686	-0.195114
C	4.480126	1.742484	0.382085
C	4.883172	3.050886	-0.12005
C	5.760032	3.076158	-1.335584
C	4.467656	4.168654	0.503629
H	4.550861	-2.578125	0.022208
H	5.58977	-1.63848	-1.079532
H	3.824601	-1.675495	-1.344892
H	3.773757	-0.536808	0.994866
H	3.838756	1.714589	1.284169
H	5.263586	2.57395	-2.180306
H	6.689331	2.51517	-1.152354
H	6.012972	4.104066	-1.627597
H	3.831095	4.121278	1.392371
H	4.754976	5.16039	0.146599
