15

C	0.769815	0.022408	0.131037
C	2.254806	0.044304	0.272652
C	3.071289	0.922409	-0.311814
C	4.574736	0.9161	-0.135524
O	5.057138	-0.211444	0.545571
C	5.240035	1.106	-1.436888
C	5.775076	1.251405	-2.513642
H	0.424898	-0.939139	-0.28539
H	0.405837	0.828135	-0.523403
H	0.278327	0.127883	1.112529
H	2.705872	-0.718526	0.919656
H	2.672967	1.715664	-0.955763
H	4.849663	1.779002	0.500401
H	4.897101	-0.977459	-0.019443
H	6.25281	1.379457	-3.467608
