12

O	0.936033	-0.088149	0.006206
C	2.27901	0.034323	0.001265
C	3.09266	1.146489	0.000168
O	2.585038	2.414012	0.004416
C	4.438217	0.68154	-0.005861
C	4.391509	-0.697903	-0.008284
N	3.071592	-1.073177	-0.003831
H	0.571435	0.804765	0.009225
H	3.313295	3.040391	0.002701
H	5.340096	1.291934	-0.008241
H	5.189698	-1.434752	-0.01285
H	2.716068	-2.018052	-0.004275
