15

C	1.866991	-0.400008	1.318366
N	3.089461	-0.21415	0.57405
C	3.263918	1.109581	0.036899
C	4.657377	1.379692	-0.513016
C	5.797781	0.617836	0.107613
O	4.818934	2.200308	-1.383881
H	1.791989	-1.44177	1.664093
H	0.940432	-0.160221	0.752893
H	1.874886	0.240219	2.215637
H	3.150558	-0.90285	-0.172039
H	3.138405	1.838468	0.861307
H	2.535901	1.412288	-0.745477
H	5.744059	0.664561	1.205906
H	6.748717	1.021749	-0.261089
H	5.721781	-0.450283	-0.149352
