16

C	1.058939	0.169274	0.234649
C	2.563588	-0.025676	0.104537
C	3.075957	-1.067127	1.091655
O	2.894378	-0.534102	-1.180247
C	3.329581	1.261215	0.299463
N	2.744087	2.348316	0.595912
O	3.607196	3.402339	0.707893
H	0.698621	0.915232	-0.489847
H	0.784768	0.530037	1.235161
H	0.553995	-0.788152	0.042505
H	2.872321	-0.762329	2.128176
H	4.159361	-1.210512	0.965836
H	2.58125	-2.029712	0.895095
H	2.559731	0.089062	-1.835156
H	4.420719	1.222803	0.148731
H	3.031609	4.139273	0.937686
