13

C	0.965197	0.047547	0.005259
C	2.444894	-0.072896	0.002106
C	3.238643	-1.160986	-0.000264
C	4.639206	-0.664717	-0.002564
N	5.736541	-1.304119	-0.005151
N	4.62705	0.760452	-0.001482
C	3.386887	1.083681	0.001162
H	0.474736	-0.934765	0.003398
H	0.616048	0.610679	-0.876429
H	0.61951	0.605414	0.891671
H	2.945743	-2.211086	-0.000564
H	5.545075	-2.311095	-0.005563
H	3.065171	2.13282	0.002559
