17

C	1.03792	0.071339	0.160198
C	2.523909	0.130631	0.005483
C	3.280225	-1.182497	-0.0035
C	3.579083	-1.620747	-1.408745
C	3.165476	-2.765049	-1.954727
N	3.07317	1.272469	-0.177055
N	4.401439	1.356149	-0.417987
H	0.611363	1.080187	0.089682
H	0.752974	-0.372089	1.129679
H	0.590903	-0.561857	-0.625482
H	2.695752	-1.955259	0.519308
H	4.225699	-1.077041	0.565003
H	4.153997	-0.907787	-2.012821
H	2.582093	-3.494166	-1.382079
H	3.397911	-3.018098	-2.992358
H	4.749413	2.280137	-0.190434
H	4.992284	0.621841	-0.022476
