15

N	1.583919	-1.146178	-0.616953
C	1.980303	-0.27416	0.36232
N	1.546525	-0.200291	1.563213
C	3.048834	0.710771	-0.06731
C	4.464043	0.175483	0.119537
C	4.923499	-0.827505	-0.895098
O	4.261335	-1.250764	-1.809995
H	2.216136	-1.283881	-1.399345
H	1.022711	-1.943714	-0.347744
H	0.854332	-0.932841	1.748529
H	2.919952	1.599386	0.562856
H	2.898803	1.006168	-1.117961
H	4.582146	-0.279414	1.120765
H	5.206443	0.995298	0.098743
H	5.980278	-1.176007	-0.762567
