17

C	1.698664	0.883728	-1.679753
C	2.694003	0.881675	-0.574566
N	3.941426	0.868896	-0.810393
N	4.721935	0.875438	0.364933
C	5.99462	0.186176	0.162091
C	5.946183	1.659407	0.194405
C	6.390619	2.480755	1.368599
H	1.035019	0.006394	-1.604938
H	2.207298	0.871133	-2.652843
H	1.053437	1.775729	-1.618563
H	2.335345	0.891403	0.470297
H	6.134047	-0.291583	-0.813023
H	6.349344	-0.382912	1.027598
H	6.030918	2.137799	-0.789512
H	6.226919	1.93374	2.3084
H	5.827029	3.424772	1.421749
H	7.461133	2.726271	1.289717
