16

C	1.669275	-0.124896	-0.054416
C	0.719555	-1.174443	0.494996
O	-0.410129	-1.419763	-0.313035
C	-1.431442	-0.545592	-0.175413
C	-1.358281	0.736738	0.204765
C	-0.094924	1.544109	0.381385
N	0.9787	1.072596	-0.464193
H	2.20259	-0.537947	-0.928151
H	2.435157	0.034618	0.740877
H	1.254807	-2.131946	0.588399
H	0.373782	-0.888109	1.505629
H	-2.392254	-1.016379	-0.406942
H	-2.310003	1.260568	0.327061
H	0.178652	1.612915	1.461848
H	-0.321696	2.578641	0.078754
H	1.6316	1.8134	-0.692795
