17

C	1.000696	0.120999	0.012964
N	2.430418	-0.006599	0.141178
C	3.170718	1.159095	-0.285665
C	4.63674	1.016599	0.0106
C	5.075091	0.760884	1.416852
N	5.426027	1.140432	-0.98762
O	6.748442	1.040702	-0.633878
H	0.508471	-0.811748	0.32751
H	0.646668	0.364143	-1.013018
H	0.635239	0.921422	0.677786
H	2.761996	-0.824232	-0.365348
H	2.7851	2.026943	0.28293
H	3.057857	1.408352	-1.361357
H	4.245155	0.328228	1.990459
H	5.389946	1.703849	1.894772
H	5.943545	0.08791	1.43699
H	7.204233	1.12238	-1.477495
