18

C	3.95014	-0.987547	0.741684
O	2.914148	-0.282317	0.116779
C	3.119547	1.018043	-0.160503
C	4.223107	1.741556	0.074377
C	4.393518	3.201213	-0.247042
C	3.150235	3.86664	-0.834545
N	4.91732	3.862489	0.944034
H	3.594126	-2.015015	0.892035
H	4.209336	-0.54724	1.721382
H	4.863341	-1.007134	0.119312
H	2.230209	1.443826	-0.633402
H	5.093517	1.290558	0.55838
H	5.195806	3.271216	-1.008601
H	2.306755	3.81534	-0.126167
H	2.834159	3.398508	-1.779908
H	3.352687	4.928641	-1.04227
H	4.215017	3.836482	1.683507
H	5.100771	4.845781	0.750269
