16

C	1.839224	0.160911	-0.803322
N	1.8428	0.003336	0.645403
C	0.572338	0.07223	-0.046614
C	-0.35109	1.245954	0.232474
C	-1.692551	0.695758	-0.232041
O	-1.651301	-0.672684	0.106267
C	-0.361072	-1.13597	-0.192988
H	2.194319	1.129493	-1.174667
H	2.118558	-0.692552	-1.434716
H	2.065978	-0.957056	0.905341
H	-0.363394	1.439589	1.316042
H	-0.044826	2.166972	-0.282534
H	-2.562511	1.14802	0.264666
H	-1.814381	0.827881	-1.327645
H	-0.313861	-1.54024	-1.224942
H	-0.108051	-1.952021	0.504286
