16

O	2.138155	-0.312318	1.402551
C	2.513224	-0.053172	0.071017
C	3.011567	1.347386	-0.023925
C	4.144914	1.789941	-0.576584
C	4.255468	3.282519	-0.412622
N	2.955481	3.707177	0.108374
C	2.258422	2.509339	0.5778
H	1.691299	-1.163206	1.430663
H	1.644309	-0.160518	-0.614596
H	3.294255	-0.752014	-0.289014
H	4.920726	1.164324	-1.025145
H	5.074731	3.52364	0.295784
H	4.504801	3.810928	-1.349426
H	2.420957	4.124038	-0.646396
H	1.191103	2.5218	0.294385
H	2.278227	2.421187	1.681134
