13

O	1.37809	0.114922	0.658424
C	2.459761	-0.067624	0.150613
N	2.89316	-1.255629	-0.395028
N	4.188305	-1.251163	-0.93751
C	4.623827	0.126748	-0.818987
C	3.836725	1.153205	-1.544261
C	3.57197	0.914047	-0.071355
H	2.235543	-1.951041	-0.726382
H	4.775797	-1.812774	-0.318626
H	5.696364	0.258461	-0.659964
H	4.350405	2.082397	-1.801755
H	3.081723	0.829324	-2.267851
H	3.746272	1.695748	0.670664
