18

C	2.283194	-0.467934	-1.46195
C	2.481919	0.036386	-0.040479
C	3.24407	1.345643	0.02671
C	2.591319	2.629951	-0.53374
C	3.20882	3.410004	0.642537
C	3.387748	2.070233	1.381696
H	1.71612	-1.411043	-1.485549
H	3.249518	-0.646897	-1.960431
H	1.731796	0.266967	-2.070887
H	3.015547	-0.722752	0.559091
H	1.500391	0.172053	0.449665
H	4.241757	1.21366	-0.429536
H	1.49197	2.577241	-0.45297
H	2.847246	2.942275	-1.557883
H	4.177811	3.855424	0.368864
H	2.596708	4.188073	1.123696
H	4.310814	1.911665	1.961134
H	2.527663	1.850169	2.036132
