19

C	0.949934	-0.019839	0.019882
C	2.461513	0.032809	-0.003146
N	2.918285	0.029024	-1.385396
C	3.177982	1.069092	0.906521
C	4.235717	-0.001852	1.240286
C	3.227671	-1.079648	0.798496
N	3.712317	-2.258397	0.142902
H	0.572044	-0.070478	1.051599
H	0.593635	-0.907389	-0.52705
H	0.506049	0.871945	-0.455411
H	3.893927	0.317925	-1.445478
H	2.393791	0.713851	-1.926636
H	2.570835	1.335637	1.785816
H	3.515385	1.998581	0.420783
H	5.097497	0.030802	0.553311
H	4.628125	-0.053612	2.266834
H	2.615092	-1.373019	1.66783
H	3.907511	-2.025756	-0.832203
H	2.98552	-2.970267	0.110621
