13

O	0.928406	-0.185451	-0.183035
C	2.31455	-0.013419	0.006574
C	3.057552	-1.218433	-0.488748
C	3.806943	-0.840321	-1.525578
O	3.741269	0.492159	-1.814477
C	2.916798	1.068061	-0.883168
C	2.71067	2.383475	-0.839181
H	0.504403	0.665632	-0.023407
H	2.536866	0.204724	1.071399
H	2.949506	-2.225996	-0.094491
H	4.465443	-1.414238	-2.177018
H	3.169978	3.051732	-1.569036
H	2.073595	2.811034	-0.063255
