15

O	0.937089	0.070627	0.015323
C	2.334729	-0.019247	0.017531
C	2.880227	1.402081	-0.001371
C	4.333359	1.457595	-0.001871
C	5.549452	1.480948	-0.002038
C	6.972606	1.484011	-0.002389
C	7.73945	2.584345	0.002816
H	0.572887	-0.818981	0.026414
H	2.722953	-0.565743	-0.865556
H	2.721765	-0.541542	0.915668
H	2.477273	1.942167	0.873118
H	2.477674	1.918363	-0.890332
H	7.454243	0.497869	-0.007513
H	7.301091	3.585559	0.007994
H	8.829332	2.505079	0.002007
