16

N	0.943874	0.018118	0.146284
C	2.380525	0.009943	0.008136
C	3.151369	1.051038	0.842715
C	4.173476	-0.037925	1.231371
N	5.408337	0.064467	0.486444
C	3.130757	-1.097384	0.772299
H	0.538575	-0.777023	-0.345923
H	0.552781	0.849535	-0.295
H	2.731776	0.042219	-1.046532
H	2.542218	1.371948	1.700668
H	3.559183	1.937635	0.332437
H	4.425966	-0.079184	2.303493
H	5.219529	0.102389	-0.514402
H	5.978824	-0.766463	0.636404
H	3.513187	-1.958689	0.200099
H	2.511952	-1.460025	1.607637
