15

N	1.223624	-0.173646	-0.721228
C	2.225403	0.135475	0.284907
C	2.889706	1.465048	0.034159
C	2.139891	2.723462	0.070185
C	0.803246	2.809457	0.098159
N	4.158963	1.392138	-0.169151
O	4.759286	2.60008	-0.381027
H	0.794983	-1.074857	-0.522429
H	1.662378	-0.255421	-1.636629
H	3.041821	-0.60685	0.376665
H	1.720602	0.186272	1.265929
H	2.751128	3.629439	0.080416
H	0.18043	1.913731	0.026048
H	0.309406	3.783674	0.151391
H	5.685573	2.364438	-0.493054
