15

N	1.016809	0.109854	0.145554
C	2.444657	0.15873	-0.133104
C	2.713317	-0.553041	-1.432725
C	3.618769	-1.516782	-1.5961
C	2.853053	1.59847	-0.259416
N	3.762414	2.064963	0.495571
O	4.026223	3.383755	0.249344
H	0.819708	0.53693	1.048786
H	0.704727	-0.857838	0.197791
H	3.090149	-0.284724	0.652043
H	2.093809	-0.222562	-2.275677
H	4.240389	-1.861126	-0.763049
H	3.777353	-1.993201	-2.567114
H	2.345329	2.228183	-1.006928
H	4.723056	3.59343	0.879735
