15

C	1.133516	-0.084748	-0.590422
C	2.377038	0.093614	-0.118182
N	3.042449	1.282525	0.099897
C	4.405286	1.374931	0.608227
C	4.611248	2.909556	0.65741
N	3.389984	3.519319	0.144539
C	2.591494	2.566808	-0.129784
H	0.749265	-1.098056	-0.7069
H	0.474074	0.738752	-0.871233
H	2.983098	-0.779426	0.143862
H	5.111691	0.869274	-0.071737
H	4.489124	0.896637	1.598015
H	5.471811	3.234538	0.050636
H	4.799272	3.270864	1.681792
H	1.585129	2.717242	-0.531419
