19

C	3.00638	3.59687	2.361614
C	4.309225	3.06442	1.813361
O	4.030926	1.920616	1.045204
C	5.10934	1.39749	0.337464
C	6.154236	0.709758	1.178012
C	4.732132	0.83145	-0.990326
C	5.505282	2.124137	-0.919278
H	3.178987	4.491079	2.979038
H	2.511005	2.833866	2.980861
H	2.324019	3.862382	1.54053
H	5.000755	2.825558	2.64553
H	4.81393	3.831329	1.191731
H	6.927291	0.253316	0.544089
H	5.688035	-0.083376	1.783203
H	6.658098	1.412766	1.860259
H	3.673364	0.897345	-1.251123
H	5.24187	-0.071339	-1.337697
H	6.557376	2.126646	-1.217284
H	4.96141	3.042858	-1.154909
