20

C	0.893718	-0.669417	0.000924
C	2.399265	-0.417578	0.132181
C	2.966175	-1.250721	1.27423
O	3.058732	-0.850034	-1.037641
C	2.699337	1.07394	0.388149
C	2.195058	2.036586	-0.680039
N	2.736862	1.703118	-1.994344
H	0.480769	-0.150378	-0.87781
H	0.337583	-0.338166	0.892997
H	0.71656	-1.745207	-0.143813
H	2.47528	-1.016639	2.231003
H	4.047049	-1.069355	1.373888
H	2.822158	-2.319403	1.05495
H	2.88551	-0.158386	-1.706104
H	3.795484	1.176652	0.480327
H	2.273581	1.375312	1.359931
H	2.421002	3.075871	-0.364944
H	1.096454	1.973191	-0.743546
H	3.730239	1.927558	-2.038374
H	2.281576	2.237486	-2.730365
