18

C	3.010512	-1.085772	-0.517884
N	2.492835	0.084458	0.1476
C	3.279493	1.279644	-0.049483
C	3.232545	1.822609	-1.4927
C	3.348619	3.307711	-1.296632
C	3.110155	3.654949	-0.027919
C	2.796678	2.454349	0.818563
H	2.398597	-1.964819	-0.26518
H	4.07004	-1.32372	-0.272882
H	2.953959	-0.958402	-1.611293
H	2.398727	-0.097803	1.143812
H	4.35614	1.112663	0.191745
H	2.260295	1.562898	-1.953925
H	4.01906	1.401481	-2.140015
H	3.559255	4.007393	-2.109507
H	3.094388	4.679815	0.351766
H	3.272899	2.475173	1.81282
H	1.705572	2.369312	0.984105
