18

C	1.049236	0.014362	0.174082
C	2.554896	-0.001115	-0.078116
N	2.958583	-0.690611	-1.293125
C	3.127818	1.405644	-0.112839
C	3.218418	2.169308	1.21676
O	4.639637	2.193611	1.165745
C	4.656278	1.51212	-0.089732
H	0.794387	0.518328	1.120433
H	0.647152	-1.009777	0.224292
H	0.526252	0.543673	-0.640283
H	3.042839	-0.52611	0.764897
H	2.49608	-0.269881	-2.099382
H	2.653593	-1.661755	-1.269482
H	2.647766	1.977945	-0.925229
H	2.834247	1.621895	2.099039
H	2.777344	3.182498	1.220772
H	5.109527	2.122038	-0.891515
H	5.179278	0.540766	-0.049356
