15

O	2.93466	-1.02666	-0.600216
C	2.332335	0.01513	0.120958
C	3.25658	1.224857	0.068404
C	2.756066	2.413433	0.832747
C	2.711209	3.482105	0.009477
C	3.156601	3.080556	-1.326847
C	3.471834	1.768526	-1.31178
H	2.311646	-1.755963	-0.664197
H	2.165037	-0.262542	1.181808
H	1.34965	0.30433	-0.301651
H	4.233773	0.899158	0.479989
H	2.484854	2.390055	1.889349
H	2.397497	4.491476	0.283311
H	3.216144	3.749269	-2.188089
H	3.820403	1.156159	-2.143064
