16

C	1.001127	0.00393	-0.010732
C	2.5289	-0.009476	5.9e-05
C	3.031776	-0.70215	1.266174
C	3.048919	-0.754359	-1.237517
N	2.981857	1.380112	0.047488
H	0.619295	0.513264	-0.911157
H	0.618661	0.541854	0.869261
H	0.591856	-1.017902	-0.007078
H	2.670203	-0.172252	2.15974
H	4.134171	-0.709448	1.298032
H	2.688725	-1.746903	1.311434
H	2.702052	-0.262721	-2.161397
H	2.70361	-1.800291	-1.265027
H	4.151492	-0.762747	-1.251557
H	2.686837	1.867391	-0.798438
H	4.001399	1.41077	0.045575
