14

C	0.957843	-0.004773	0.019096
C	2.300366	-0.03292	0.022102
C	3.028038	-1.264011	-0.040196
C	3.680861	-2.285731	-0.097803
C	3.140281	1.207087	0.062493
C	2.737641	2.432351	0.784023
N	3.75106	1.549362	1.335893
H	0.420987	0.946264	0.051664
H	0.371307	-0.925236	-0.01782
H	4.252863	-3.193964	-0.143579
H	3.748729	1.345568	-0.842401
H	1.793133	2.458249	1.337345
H	3.035191	3.395493	0.353555
H	4.688208	1.92452	1.20176
