14

C	0.392202	1.344456	0.314022
C	1.405774	0.35912	-0.253099
N	0.947846	-0.982629	0.021781
C	-0.382726	-1.255056	0.179426
N	-1.352825	-0.4303	0.122338
C	-1.017537	0.955404	-0.130422
H	0.63924	2.370489	0.000165
H	0.443675	1.315776	1.415552
H	2.397342	0.511365	0.203453
H	1.524491	0.525336	-1.341502
H	1.611598	-1.741035	0.070105
H	-0.597772	-2.315949	0.382818
H	-1.137896	1.161863	-1.211569
H	-1.759082	1.59567	0.375522
