18

C	1.006334	0.134843	-0.02788
C	2.501853	0.024063	0.015164
C	3.315144	-0.768688	-0.97361
C	2.734107	-1.540665	-2.097165
C	2.210715	-0.996332	-3.197746
N	3.272037	0.67058	-1.014639
C	4.45879	1.395326	-0.642038
H	0.68351	1.129198	0.318389
H	0.539399	-0.619976	0.623372
H	0.633852	-0.009779	-1.051425
H	2.938172	0.04831	1.027321
H	4.219073	-1.221715	-0.535731
H	2.748295	-2.631049	-1.978145
H	2.20278	0.090703	-3.32208
H	1.788198	-1.613235	-3.994571
H	4.1893	2.420522	-0.344516
H	5.13867	1.461049	-1.505681
H	5.014651	0.928885	0.19985
