14

N	1.00671	-0.030501	0.016617
C	2.452274	0.079976	-0.060034
C	2.948667	1.405204	0.472461
C	3.70194	1.268711	1.570741
C	3.867579	-0.174916	1.896633
O	4.514989	-0.916253	0.858125
C	3.109629	-0.920105	0.885638
H	0.681966	-0.804059	-0.561004
H	0.564732	0.807662	-0.354425
H	2.868365	-0.066768	-1.081596
H	2.733382	2.351544	-0.032443
H	4.173623	2.080879	2.126821
H	4.049351	-0.53231	2.91578
H	2.614881	-1.878675	1.086844
