16

C	1.429114	0.021021	1.007428
C	2.30719	0.000207	0.003941
C	2.918707	-1.235238	-0.618177
C	4.292439	-0.771914	-1.059709
N	5.085684	-0.018116	-0.104896
C	4.301437	0.7151	-1.08279
C	2.933486	1.208305	-0.655899
H	1.056528	0.963917	1.41766
H	1.045043	-0.904085	1.446569
H	2.336359	-1.546054	-1.505025
H	2.940911	-2.092448	0.074186
H	4.857125	-1.378679	-1.77573
H	4.64319	-0.000999	0.816627
H	4.873062	1.292678	-1.81721
H	2.966033	2.086028	0.009742
H	2.354789	1.498797	-1.551977
