18

C	0.959161	-0.009713	0.080895
C	2.467225	-0.023591	-0.093169
C	3.036545	-1.261524	-0.759428
C	4.087131	-0.919608	-1.50624
C	4.294005	0.572605	-1.407342
N	3.036218	1.093536	-0.870973
C	2.182071	1.602057	-1.922403
H	0.620331	0.935179	0.531724
H	0.663048	-0.825742	0.757216
H	0.426621	-0.155663	-0.870484
H	2.910099	0.031367	0.92422
H	2.667552	-2.274743	-0.582336
H	4.741718	-1.599175	-2.056616
H	5.134191	0.789723	-0.716246
H	4.547275	1.054349	-2.365538
H	2.702554	2.422227	-2.439459
H	1.260323	2.030056	-1.504193
H	1.895053	0.847209	-2.687638
