15

C	0.926291	-0.065836	-0.027779
C	2.40927	0.043535	-0.019611
C	3.235703	1.156526	-0.07603
N	2.83649	2.493082	-0.199456
C	4.582757	0.688116	-0.061574
C	4.537776	-0.688846	0.004024
N	3.230135	-1.063142	0.028204
H	0.467659	0.931706	-0.072486
H	0.530005	-0.565099	0.874378
H	0.549389	-0.622479	-0.904273
H	3.515207	3.133392	0.197875
H	1.932468	2.676802	0.222892
H	5.480681	1.302184	-0.102579
H	5.342412	-1.419961	0.037381
H	2.898016	-2.014789	0.074983
