13

C	0.996947	0.000455	-0.004511
N	2.431083	-0.056885	-0.004411
N	3.166138	1.07089	-0.009537
C	4.420798	0.65612	-0.010595
C	4.525182	-0.75303	-0.005289
C	3.208474	-1.170051	-0.002089
O	2.717529	-2.41713	0.00278
H	0.719667	1.060633	0.006218
H	0.568454	-0.479634	0.891806
H	0.568124	-0.461978	-0.909968
H	5.229126	1.38762	-0.014444
H	5.410617	-1.38202	-0.004138
H	1.75466	-2.40386	0.001918
