18

C	0.998682	0.061137	0.04534
C	2.511491	-0.00347	0.077489
N	3.104822	1.102156	0.82693
C	4.446831	0.646581	1.155281
C	4.328913	-0.855974	1.468288
C	3.113157	-1.274644	0.672078
C	2.643147	-2.514936	0.531087
H	0.579269	-0.731901	-0.589731
H	0.666507	1.03074	-0.353329
H	0.581512	-0.064859	1.057816
H	2.887056	0.074783	-0.9634
H	2.575641	1.21734	1.692125
H	5.097425	0.796551	0.275422
H	4.876167	1.239004	1.976604
H	5.227085	-1.438556	1.209565
H	4.142237	-1.013171	2.545013
H	1.74239	-2.724956	-0.05251
H	3.142677	-3.371455	0.992484
