17

C	2.993354	-0.849173	-0.950869
C	2.590885	0.076667	0.195089
C	2.972929	1.51016	-0.050026
C	2.083993	2.453073	-0.397184
C	4.431274	1.82913	0.102812
C	4.9208	3.231055	-0.17454
O	5.203741	0.961203	0.451383
H	2.704255	-1.888906	-0.733516
H	4.082055	-0.827096	-1.103389
H	2.505316	-0.551901	-1.892076
H	3.088468	-0.261423	1.117825
H	1.504243	0.01745	0.364644
H	1.020957	2.213928	-0.499184
H	2.373251	3.488175	-0.592203
H	4.692785	3.532474	-1.208176
H	6.005919	3.25713	-0.016314
H	4.437625	3.957764	0.496025
