15

C	2.258376	-0.457826	-1.411172
C	2.567762	0.022412	-0.002752
N	3.032866	1.392208	0.041513
C	2.27144	2.523061	-0.12111
C	3.157259	3.573534	-0.069252
N	4.430169	3.11595	0.114836
C	4.321803	1.812361	0.173306
H	1.913735	-1.502575	-1.39346
H	3.152297	-0.398	-2.050032
H	1.469687	0.154486	-1.873433
H	3.348395	-0.603132	0.456731
H	1.678274	-0.063142	0.642095
H	1.192168	2.479143	-0.250913
H	2.934736	4.637405	-0.151441
H	5.140842	1.105535	0.317803
