18

N	1.854229	-0.753975	-1.0667
C	2.743325	-0.361398	0.01139
C	2.976537	1.116664	-0.01114
C	4.176737	1.702605	-0.034697
C	4.41654	3.184467	-0.032284
C	5.136437	3.636311	1.205679
C	6.337683	4.214571	1.23214
H	1.625374	-1.743281	-1.005524
H	2.310434	-0.612318	-1.966065
H	3.72519	-0.8813	0.026951
H	2.24659	-0.621502	0.964639
H	2.06806	1.73333	-0.027686
H	5.07651	1.072078	-0.028349
H	3.447	3.70669	-0.106783
H	5.007815	3.471636	-0.919542
H	4.613684	3.443221	2.151326
H	6.893957	4.417099	0.31051
H	6.80892	4.512393	2.172575
