13

C	1.004645	0.04898	-0.016859
C	2.50856	-0.063004	0.041176
C	3.153085	-1.243466	0.095403
C	3.236831	1.162144	0.00615
C	3.811749	2.240786	-0.021407
C	4.452112	3.450013	-0.053093
C	5.018231	4.528057	-0.081074
H	0.653884	0.957214	0.492591
H	0.526574	-0.823968	0.449294
H	0.664504	0.105252	-1.063329
H	2.591664	-2.180964	0.123201
H	4.243761	-1.295291	0.11113
H	5.51731	5.479127	-0.106103
