13

O	0.968371	0.058739	-0.352709
C	2.152459	0.063669	-0.080713
N	2.906703	1.206126	-0.080454
N	4.228815	1.259473	0.345905
C	4.988621	0.128007	-0.150195
C	4.271789	-1.172089	0.088576
C	2.935054	-1.174933	0.184314
H	2.466171	2.074294	-0.363788
H	4.243379	1.23651	1.36794
H	5.97198	0.139327	0.344735
H	5.182874	0.258751	-1.2319
H	4.846419	-2.102474	0.157877
H	2.346955	-2.08113	0.341711
