18

C	0.973934	-0.006939	-0.016077
C	2.428404	0.001939	-0.010109
C	3.640367	0.013607	0.007902
C	5.114644	0.008681	-0.002538
C	5.633022	-0.677771	1.266988
C	5.596693	-0.760464	-1.246652
N	5.577696	1.397435	0.020282
H	0.570659	1.009569	0.114201
H	0.576091	-0.629644	0.800827
H	0.577543	-0.40515	-0.963613
H	5.286524	-0.133531	2.155896
H	6.735699	-0.681478	1.266755
H	5.285225	-1.718864	1.324233
H	5.23855	-0.270264	-2.164839
H	5.230961	-1.798368	-1.250288
H	6.698968	-0.78132	-1.26914
H	5.226261	1.88854	-0.800514
H	6.595401	1.408192	-0.050193
