19

C	0.787985	0.367668	-0.455748
C	2.213902	0.100184	-0.029446
C	2.472433	0.158216	1.465312
C	1.712318	-0.887632	2.269415
O	2.024644	-2.202639	1.894091
C	3.014532	-0.894629	-0.840331
C	3.312444	0.573824	-0.936926
H	0.691048	0.354271	-1.552081
H	0.450865	1.355598	-0.101153
H	0.090272	-0.385893	-0.055241
H	2.202827	1.162308	1.840771
H	3.552096	0.029047	1.650909
H	0.62115	-0.693883	2.202923
H	1.977087	-0.79241	3.334848
H	1.873734	-2.275462	0.945409
H	2.528146	-1.375752	-1.694528
H	3.734132	-1.529181	-0.314835
H	4.235319	0.941898	-0.479105
H	3.030416	1.096764	-1.855302
