13

C	1.000764	0.021147	-0.076542
C	2.212123	0.004386	-0.042308
C	3.648478	-0.012735	-0.000787
C	4.44102	-0.738223	-1.053279
C	4.437611	0.765836	-1.052736
C	5.604001	1.50503	-0.655521
C	6.586518	2.130204	-0.319328
H	-0.073113	0.036595	-0.105661
H	4.083383	0.002253	1.004284
H	3.88358	-1.237729	-1.848755
H	5.356088	-1.240188	-0.73209
H	3.825303	1.245866	-1.823489
H	7.457515	2.683997	-0.021617
