13

O	2.610952	2.360494	2.201963
C	2.120507	1.775982	1.2625
N	2.842382	1.200394	0.267414
C	4.277599	1.320244	0.240627
C	4.753738	2.717978	-0.18179
C	4.284985	3.075009	-1.515075
N	3.892345	3.311174	-2.578057
H	1.020056	1.645098	1.129423
H	2.356967	0.833938	-0.541711
H	4.686166	0.553985	-0.433387
H	4.662677	1.125628	1.252748
H	5.85445	2.766964	-0.163363
H	4.377356	3.454111	0.546379
