12

C	0.93631	0.029163	-0.015162
C	2.419504	0.037356	0.028005
C	3.29948	1.058479	0.017223
O	4.586894	0.658721	0.053501
N	4.53564	-0.708259	0.171555
C	3.234863	-1.186033	0.041927
O	2.920049	-2.354303	-0.02339
H	0.522028	1.04496	-0.072547
H	0.525248	-0.466805	0.878187
H	0.581409	-0.545152	-0.885196
H	3.167164	2.140242	-0.003882
H	5.362711	-1.169999	-0.18948
