20

C	0.4453	0.932195	-0.426706
C	1.649482	0.501245	0.394592
C	2.827912	1.478984	0.345361
N	2.497433	2.834782	0.794165
C	4.028648	0.963672	1.13719
C	5.274813	1.833104	0.999224
O	5.124509	3.101366	1.559227
H	-0.364615	0.188854	-0.376813
H	0.711101	1.064187	-1.488435
H	0.029751	1.887079	-0.06728
H	1.999267	-0.485961	0.047985
H	1.356152	0.361697	1.451663
H	3.145084	1.575346	-0.710851
H	2.059513	2.802246	1.715933
H	1.83218	3.282769	0.16811
H	4.258564	-0.063158	0.806198
H	3.756818	0.89774	2.207081
H	5.54813	1.88221	-0.079611
H	6.121254	1.337739	1.505293
H	4.247014	3.406505	1.257024
