17

C	1.031305	0.101068	0.100889
C	2.353439	0.003409	-0.069175
C	3.134875	-1.281164	-0.056832
C	4.153686	-1.32942	-1.193741
C	4.983883	-0.052883	-1.178399
C	4.065346	1.153436	-1.221558
O	3.099796	1.139913	-0.18609
H	0.549309	1.080552	0.103939
H	0.42705	-0.789853	0.275958
H	2.446916	-2.137998	-0.088841
H	3.677885	-1.333463	0.905177
H	4.792245	-2.222056	-1.10395
H	3.622804	-1.410593	-2.159019
H	5.59138	-0.012839	-0.257573
H	5.681661	-0.012957	-2.030713
H	4.624016	2.092678	-1.099366
H	3.548184	1.196391	-2.201076
