19

C	1.466921	-0.531055	-0.136618
O	2.795462	-0.126114	-0.224273
C	2.988725	1.228089	0.056243
C	4.460466	1.555889	-0.069034
C	4.765375	3.025834	0.208143
C	6.213736	3.362841	0.045786
C	7.003534	3.867672	0.994436
H	1.421002	-1.602636	-0.378088
H	0.814439	0.015995	-0.847349
H	1.050409	-0.384094	0.881209
H	2.62985	1.472442	1.080358
H	2.396308	1.862109	-0.6397
H	4.791687	1.281441	-1.084944
H	5.027153	0.914223	0.625086
H	4.433304	3.296288	1.225191
H	4.172893	3.648927	-0.487824
H	6.641414	3.158436	-0.945272
H	6.62273	4.083904	1.998214
H	8.05695	4.089289	0.803847
