18

C	1.102581	0.051945	0.388232
N	2.497688	0.003036	0.007955
C	2.838946	-1.246659	-0.668487
C	2.564916	-1.035628	-2.163213
C	3.647228	-0.380252	-2.966953
C	2.565394	0.45908	-2.355082
C	2.840748	1.040718	-0.962327
H	0.881896	1.011264	0.881384
H	0.884389	-0.746307	1.114212
H	0.394821	-0.061979	-0.463471
H	2.264794	-2.084618	-0.24764
H	3.907957	-1.470505	-0.504163
H	1.837187	-1.672112	-2.674085
H	4.650418	-0.324457	-2.526896
H	3.641716	-0.520674	-4.051932
H	1.838196	0.947236	-3.009919
H	3.910311	1.296888	-0.860684
H	2.268124	1.958783	-0.76811
