15

C	0.894391	-0.020844	0.187287
C	2.400211	-0.004801	-0.054068
C	3.146892	1.008435	0.851161
O	3.549552	-0.02121	1.743899
C	3.164093	-1.031191	0.821607
C	2.728006	0.01857	-1.47076
C	2.996346	0.038302	-2.652234
H	0.689294	-0.037447	1.268787
H	0.434439	-0.909587	-0.270443
H	0.419492	0.872317	-0.246006
H	2.51612	1.774242	1.335391
H	4.003211	1.499802	0.35495
H	4.028416	-1.493446	0.311552
H	2.546469	-1.821284	1.283224
H	3.240488	0.056231	-3.698428
