16

C	1.404174	-0.673686	-0.914441
C	2.583143	-0.411558	-0.822982
C	3.998505	-0.096172	-0.690676
C	4.437448	0.103809	0.759067
N	5.85244	0.382304	0.811475
C	6.261716	1.762438	0.702648
C	6.360467	1.032699	1.991546
H	0.359815	-0.910109	-1.000545
H	4.225839	0.817097	-1.268261
H	4.608376	-0.900278	-1.135386
H	4.240852	-0.816125	1.333073
H	3.824337	0.908325	1.22307
H	5.478742	2.530206	0.625941
H	7.155024	1.959966	0.100656
H	7.328164	0.679076	2.363204
H	5.643918	1.311997	2.776071
