16

C	0.901243	0.226309	0.093734
C	2.293742	-0.229343	-0.29865
C	3.357467	0.829456	-0.019039
O	3.038363	1.905966	0.454084
C	4.755098	0.532965	-0.324973
C	5.205954	-0.631584	-0.854619
N	6.489106	-0.928331	-1.163159
H	0.154359	-0.552685	-0.12082
H	0.621772	1.139899	-0.449525
H	0.856988	0.469885	1.164733
H	2.331899	-0.486129	-1.371708
H	2.568814	-1.153859	0.238326
H	5.452203	1.34445	-0.092561
H	4.500274	-1.437194	-1.083232
H	7.233539	-0.280288	-0.948003
H	6.748367	-1.847918	-1.482326
