13

C	1.03307	0.107413	-0.234132
C	2.34427	-0.126945	-0.082693
C	2.834696	-1.50484	0.132298
O	3.995091	-1.785738	0.303198
C	3.367478	0.950199	-0.106367
C	3.643916	1.713001	-1.331369
O	2.897754	2.267319	-0.272624
H	0.665165	1.127427	-0.372044
H	0.309738	-0.713376	-0.217485
H	2.036749	-2.292042	0.132281
H	4.188885	0.820083	0.611006
H	3.077316	1.473386	-2.240839
H	4.643072	2.138255	-1.490639
