12

C	0.931314	0.145793	-0.079207
C	2.42015	-0.040064	-0.057621
C	3.10025	-1.203113	0.067888
C	2.493194	-2.535579	0.210988
O	3.15545	-3.538413	0.316286
C	3.184539	1.16989	-0.187383
N	3.771778	2.164369	-0.292424
H	0.625358	0.823602	0.733084
H	0.386075	-0.798002	0.027445
H	0.625623	0.622108	-1.02404
H	4.194394	-1.198427	0.067524
H	1.376735	-2.584454	0.21886
