11

N	1.038743	0.029139	0.175718
C	2.356042	-0.130197	-0.096358
N	3.04732	-1.188199	-0.282556
C	3.07506	1.202439	-0.191469
O	2.48368	2.243275	-0.002759
C	4.486771	1.15884	-0.512515
C	5.666834	1.216372	-0.782005
H	0.701365	0.969337	0.340937
H	0.433407	-0.759723	0.342424
H	2.47925	-2.035341	-0.195495
H	6.714007	1.24681	-1.024892
