18

C	0.916726	-0.106998	0.160311
C	2.42109	0.000288	-0.002834
C	2.823131	0.016115	-1.480205
O	2.337963	1.12216	-2.189156
C	3.144131	1.109871	0.792845
C	4.140398	0.017183	1.2163
N	3.181788	-0.99812	0.768009
H	0.655014	-0.151332	1.226775
H	0.533452	-1.022857	-0.320063
H	0.40258	0.762179	-0.282657
H	2.507513	-0.946027	-1.939671
H	3.92276	0.058169	-1.55273
H	1.379055	1.055289	-2.234644
H	2.542581	1.489343	1.630774
H	3.520112	1.956575	0.202048
H	5.085716	0.05649	0.642287
H	4.399003	-0.038232	2.287247
H	3.553948	-1.787877	0.242355
