14

O	1.338066	-0.655394	-0.427851
C	1.829812	0.017297	-1.462659
O	1.526173	-0.191484	-2.602278
C	2.795575	1.125299	-1.046631
N	3.241254	0.907307	0.311239
C	4.570367	0.37634	0.531507
C	4.239563	1.780093	0.880218
H	1.783665	-0.273907	0.361128
H	2.233798	2.073178	-1.09483
H	3.607228	1.185948	-1.795063
H	5.200874	0.208561	-0.350425
H	4.661975	-0.383761	1.314065
H	4.085032	2.07368	1.923378
H	4.650099	2.566794	0.235832
