13

C	0.988721	0.003909	-0.080753
C	2.440608	0.015138	-0.004913
C	3.652243	0.005708	0.073678
C	5.105109	0.053197	0.138953
C	5.751551	1.257282	-0.559438
O	4.916365	2.094033	-1.172978
O	6.935685	1.422755	-0.55149
H	0.557979	0.910783	0.371423
H	0.57984	-0.865659	0.456957
H	0.642589	-0.053605	-1.124129
H	5.554515	-0.846246	-0.313055
H	5.457886	0.071	1.182877
H	4.006489	1.772984	-1.054162
