13

C	0.989649	-0.28786	0.163516
C	2.458466	-0.054407	0.145891
C	3.131834	1.11398	-0.006489
C	2.445433	2.4209	-0.191841
O	3.017121	3.471596	-0.323512
C	4.561586	1.142475	0.005335
C	5.773443	1.179789	0.013824
H	0.716249	-1.011454	-0.623059
H	0.38249	0.614227	0.025997
H	0.697494	-0.755208	1.119447
H	3.073842	-0.95245	0.275918
H	1.329538	2.372712	-0.202506
H	6.847116	1.222641	0.020241
