17

C	0.878462	-0.165676	0.195552
C	2.360956	0.012124	0.173879
C	3.05888	1.143113	-0.021086
C	2.464316	2.493054	-0.287733
C	4.567765	1.111553	0.015818
N	5.133671	1.570057	-1.242041
H	0.559832	-0.913784	-0.550107
H	0.330095	0.764431	-0.005774
H	0.542213	-0.544249	1.176106
H	2.94135	-0.903178	0.352833
H	1.381307	2.464064	-0.465405
H	2.959578	2.94308	-1.161366
H	2.65313	3.170917	0.563466
H	4.896422	0.098771	0.329157
H	4.912019	1.805805	0.805083
H	4.946074	0.891696	-1.978184
H	6.143999	1.665491	-1.173898
