13

C	0.992962	0.011298	-0.008395
N	2.432091	-0.00161	0.000832
C	3.242746	1.100712	0.004406
C	4.555325	0.677711	0.01017
C	4.533606	-0.742275	0.009872
C	3.209092	-1.127505	0.004093
H	0.637773	1.049445	0.002144
H	0.584808	-0.501089	0.877018
H	0.595423	-0.479628	-0.910781
H	2.819217	2.103406	0.0026
H	5.432695	1.321727	0.014528
H	5.391962	-1.411713	0.013916
H	2.756559	-2.11761	0.001979
