18

C	0.907829	-0.094752	-0.005835
C	2.42037	0.056268	0.006926
C	2.977772	1.489214	-0.004497
C	2.575618	2.239661	-1.266392
C	2.558841	2.269333	1.241434
O	4.394251	1.414292	-0.058185
H	0.621913	-1.157096	0.004917
H	0.459854	0.353215	-0.906183
H	0.437342	0.377906	0.870254
H	2.862432	-0.462178	-0.860351
H	2.829271	-0.449658	0.901982
H	2.889173	1.677142	-2.158617
H	3.078628	3.216938	-1.287936
H	1.490099	2.405584	-1.312733
H	2.863504	1.734553	2.157013
H	1.470901	2.425609	1.289974
H	3.050239	3.252894	1.242605
H	4.689865	0.932436	0.722054
