16

C	1.024256	-0.113676	0.365208
N	2.440717	-0.116459	0.075165
C	3.129919	-1.318237	0.160732
C	2.610663	-2.504585	0.508452
C	3.039654	1.089087	-0.273933
C	4.522025	1.077351	-0.568818
O	2.395768	2.114704	-0.338311
H	0.65451	0.909509	0.24103
H	0.840509	-0.449629	1.398326
H	0.488332	-0.787098	-0.322474
H	4.189609	-1.255522	-0.088516
H	1.562259	-2.648804	0.772357
H	3.260534	-3.379731	0.535833
H	5.110022	0.744035	0.299614
H	4.805938	2.105245	-0.819237
H	4.766405	0.42037	-1.416817
