20

C	0.935757	-0.128697	-0.038728
C	2.436846	-0.212113	-0.102553
C	3.133086	-0.633954	-1.365528
C	3.239851	0.786463	-0.889638
C	4.538508	1.327712	-0.350552
C	4.346139	2.509156	0.589042
N	5.622454	3.014231	1.057853
H	0.605067	0.570905	0.746049
H	0.485126	-1.111274	0.175243
H	0.519423	0.224164	-0.995532
H	2.91331	-0.553034	0.825236
H	2.515833	-0.838132	-2.245805
H	4.021558	-1.267213	-1.28472
H	2.647206	1.517676	-1.454692
H	5.203927	1.638624	-1.173791
H	5.072625	0.520094	0.184215
H	3.644028	2.205877	1.396894
H	3.83562	3.318235	0.037286
H	6.075968	2.320136	1.650483
H	5.491368	3.839334	1.638631
