12

C	0.971576	-0.092486	0.003003
C	2.495676	0.003486	2.5e-05
C	2.998853	1.367663	9e-06
C	3.386559	2.520565	4.9e-05
C	3.901556	3.870957	1.2e-05
O	3.218977	4.864961	0.001706
H	0.654222	-1.145175	0.002989
H	0.543903	0.396196	-0.884387
H	0.547456	0.395091	0.892707
H	2.914653	-0.516818	-0.879424
H	2.918181	-0.518151	0.876987
H	5.018799	3.931322	-0.001526
