20

C	3.199866	-1.145936	-0.17688
C	2.676009	-0.030878	0.720799
O	2.965668	-0.290298	2.070305
C	3.155349	1.375739	0.298302
C	2.489412	2.441723	1.162019
C	4.681103	1.506272	0.313759
N	5.235714	1.232023	1.637624
H	2.950862	-0.973993	-1.236845
H	2.757888	-2.103279	0.134622
H	4.293284	-1.248292	-0.088528
H	1.57269	-0.026342	0.636644
H	3.900184	-0.02583	2.183418
H	2.841278	1.52966	-0.750258
H	2.672821	2.24323	2.229448
H	1.397199	2.433529	1.02284
H	2.852836	3.452696	0.916072
H	4.95893	2.507189	-0.076788
H	5.11435	0.776684	-0.388858
H	5.057028	2.008989	2.271689
H	6.245419	1.116594	1.595426
