19

C	1.498065	-0.709686	-0.108875
C	2.997241	-0.479963	-0.01486
C	3.392428	0.982669	-0.160819
C	4.893197	1.214672	-0.141616
O	5.560605	0.497505	-1.169266
C	5.285992	2.682021	-0.244417
O	6.672637	2.823622	-0.277813
H	1.243538	-1.774629	0.000488
H	1.100991	-0.372121	-1.080383
H	0.955723	-0.156184	0.674597
H	3.524398	-1.065851	-0.785408
H	3.375793	-0.857686	0.951311
H	2.928439	1.58341	0.641405
H	2.98308	1.386792	-1.108041
H	5.318803	0.816481	0.796136
H	5.127847	0.715521	-2.004522
H	4.895216	3.244666	0.619807
H	4.799903	3.112867	-1.150591
H	6.988603	2.088234	-0.821793
