14

C	2.794874	-0.747791	-0.865273
C	2.198298	0.346705	-0.374294
C	2.867229	1.597043	0.006423
C	2.134871	2.672897	0.359076
C	4.343055	1.637127	0.015945
C	5.087758	2.664894	-0.403759
H	2.215409	-1.637407	-1.123003
H	3.873353	-0.793336	-1.041262
H	1.110039	0.338889	-0.240727
H	1.041622	2.642878	0.335547
H	2.607735	3.600668	0.688587
H	4.845303	0.740734	0.399788
H	4.633076	3.562098	-0.834451
H	6.178818	2.63792	-0.338037
