16

C	1.291946	-0.184395	-0.349303
O	2.669276	0.010742	-0.337531
C	3.050328	1.263838	0.153057
C	4.545124	1.363984	0.167172
C	5.279255	1.700343	-1.094839
C	5.201794	2.704972	0.016157
H	1.093356	-1.190476	-0.745702
H	0.769157	0.553108	-0.992917
H	0.848382	-0.116459	0.665615
H	2.64802	1.418891	1.177782
H	2.627855	2.077252	-0.476993
H	5.029877	0.647556	0.839097
H	4.680952	1.878262	-1.993358
H	6.234151	1.204471	-1.285073
H	6.10108	2.909482	0.602469
H	4.556676	3.577879	-0.125574
