19

N	3.264707	0.985016	2.448152
C	2.852386	1.849949	1.36131
C	3.342467	1.301971	0.022604
C	4.844124	1.272845	-0.082266
C	5.537461	0.129006	-0.14286
C	5.549521	2.607891	-0.077792
N	4.977957	3.516074	-1.054106
H	3.067044	1.412663	3.349681
H	4.271449	0.830465	2.408029
H	3.190891	2.905406	1.451962
H	1.749639	1.889502	1.336982
H	2.948143	1.946202	-0.779155
H	2.941206	0.286038	-0.115467
H	5.036174	-0.842874	-0.115152
H	6.629341	0.126232	-0.22666
H	6.639912	2.43204	-0.1869
H	5.415812	3.065474	0.920569
H	5.180352	3.189606	-1.997454
H	5.38847	4.442525	-0.970017
