14

C	0.986893	-0.011304	0.00525
C	2.511356	0.013631	-0.0155
C	3.059017	-0.752058	-1.21558
C	3.03979	1.44397	0.013833
H	0.585982	0.511906	0.887825
H	0.599273	-1.041977	0.021555
H	0.575651	0.485226	-0.890263
H	2.868722	-0.495462	0.899577
H	2.731056	-0.283915	-2.159398
H	2.706864	-1.795333	-1.223763
H	4.160555	-0.767967	-1.216818
H	2.71251	2.000161	-0.881444
H	4.140992	1.4679	0.036528
H	2.672741	1.991621	0.896377
