16

C	0.976236	0.128265	0.217614
C	2.154345	0.163847	-0.0583
C	3.580561	0.182287	-0.370131
N	4.36332	0.801049	0.680452
C	5.762201	0.830536	0.410474
C	6.288032	1.994049	-0.380835
C	6.575739	1.888204	1.088333
H	-0.06954	0.098666	0.462072
H	3.736332	0.756304	-1.30082
H	3.899091	-0.858227	-0.606678
H	4.172294	0.356163	1.575186
H	6.266697	-0.135569	0.231116
H	5.550951	2.739368	-0.691737
H	7.100145	1.817389	-1.090544
H	7.589464	1.63575	1.40904
H	6.033121	2.563308	1.754969
