19

C	1.503992	1.976459	2.832849
O	2.65794	2.55822	2.310668
C	2.850366	2.383095	0.924214
C	2.001025	3.350187	0.113943
C	4.342113	2.572816	0.662797
C	5.192462	1.574669	1.381141
C	6.108302	0.790821	0.81016
H	1.499044	2.161555	3.916954
H	1.480487	0.880806	2.664377
H	0.574692	2.404979	2.410502
H	2.579129	1.341378	0.648132
H	2.275848	4.388683	0.357072
H	0.928971	3.22147	0.326334
H	2.148223	3.191748	-0.965494
H	4.600875	3.591837	1.00528
H	4.531789	2.535853	-0.422195
H	5.010648	1.504674	2.460065
H	6.310778	0.835304	-0.265879
H	6.697496	0.079397	1.39535
