19

C	0.974149	-0.203715	-0.058367
C	2.47671	-0.176376	-0.079966
N	3.21282	-0.533456	-1.285015
C	3.219433	0.854983	-0.842252
C	4.529376	1.423884	-0.37124
C	4.356282	2.610623	0.563593
N	5.642813	3.161314	0.943269
H	0.577976	0.359162	0.801643
H	0.596007	-1.236034	0.016859
H	0.554791	0.243674	-0.97408
H	2.951755	-0.553436	0.836478
H	2.571203	-0.65919	-2.067545
H	2.590973	1.562525	-1.40365
H	5.141551	1.73598	-1.234063
H	5.094622	0.620784	0.133052
H	3.717678	2.295878	1.419153
H	3.785818	3.398404	0.039469
H	6.165584	2.479084	1.490856
H	5.522959	3.974782	1.542516
