15

C	0.986327	-0.077876	0.023254
O	2.378343	-0.013003	0.022788
C	2.858261	1.298766	0.002136
C	4.314524	1.322359	0.002084
C	5.528673	1.373276	0.001626
C	6.950899	1.387077	0.001279
C	7.711075	2.491752	-0.002648
H	0.700884	-1.138494	0.039444
H	0.544604	0.390956	-0.879896
H	0.543848	0.418503	0.911124
H	2.487781	1.872467	0.880763
H	2.488042	1.844041	-0.894511
H	7.433397	0.401621	0.00445
H	7.268149	3.490947	-0.005865
H	8.801192	2.417978	-0.002838
