14

C	1.024604	-0.146751	-0.260716
C	2.521268	-0.047066	-0.030433
C	3.024027	1.414758	-0.002295
C	2.419941	2.203601	1.074578
C	1.9069	2.838285	1.966992
C	4.489326	1.458129	0.086347
N	5.644054	1.464819	0.150861
H	0.705191	-1.198611	-0.278801
H	0.735578	0.306948	-1.222199
H	0.462501	0.364593	0.53487
H	3.072022	-0.572215	-0.826922
H	2.803248	-0.52749	0.919935
H	2.754349	1.890606	-0.964551
H	1.457362	3.404794	2.762053
