16

C	1.291885	-0.666466	0.476809
C	2.778879	-0.620707	0.223536
O	3.189433	0.722985	0.214569
C	4.557847	0.905572	-0.01244
C	5.402479	0.498674	1.156059
N	6.356657	-0.325338	0.990279
O	7.049318	-0.572754	2.139834
H	0.929158	-1.704769	0.479761
H	0.751252	-0.1082	-0.301765
H	1.053445	-0.21056	1.449301
H	3.024486	-1.100129	-0.747481
H	3.322724	-1.194389	1.000845
H	4.694141	1.983972	-0.199048
H	4.911839	0.358137	-0.908227
H	5.183649	0.923827	2.148786
H	7.725167	-1.200686	1.863522
