20

C	0.79311	0.186863	-1.108364
C	2.228479	0.5917	-1.166088
C	2.844455	1.392767	-0.292159
C	4.293243	1.766553	-0.341767
N	4.499992	3.19952	-0.309538
C	5.864728	3.557697	-0.026185
C	3.992558	3.866801	-1.481772
H	0.256995	0.489742	-2.024008
H	0.276706	0.635762	-0.246908
H	0.689808	-0.909165	-1.035935
H	2.816893	0.188173	-2.001966
H	2.278647	1.824243	0.544049
H	4.776467	1.287678	-1.2272
H	4.795183	1.342763	0.547199
H	6.191039	3.101382	0.921327
H	5.955622	4.650324	0.080505
H	6.581362	3.238154	-0.818922
H	2.937518	3.601278	-1.642989
H	4.549986	3.602583	-2.411027
H	4.053619	4.959162	-1.352794
