18

C	2.479044	3.431916	-0.479165
C	2.833283	2.165371	-0.703242
C	3.236814	1.181385	0.346658
C	4.682373	0.72838	0.195627
C	5.812674	1.726048	0.511975
C	6.481158	0.558789	1.256801
N	5.188341	-0.129328	1.271346
H	2.210275	4.105866	-1.297055
H	2.43706	3.839837	0.536436
H	2.862261	1.802782	-1.740092
H	2.590341	0.286141	0.29216
H	3.109863	1.604862	1.355901
H	4.824585	0.293586	-0.817696
H	5.472582	2.523487	1.189122
H	6.350224	2.174745	-0.333607
H	7.259675	0.067575	0.63935
H	6.912906	0.764395	2.251143
H	5.197192	-1.130987	1.093968
