13

C	0.703252	-1.233636	0.518382
O	-0.575952	-1.522726	-0.020366
C	-1.503404	-0.554038	-0.073232
C	-1.261508	0.762198	0.020525
C	0.134933	1.222081	0.140391
O	1.042414	0.789358	-0.888126
C	1.151722	0.196926	0.376659
H	1.406042	-1.91412	0.013939
H	0.705997	-1.482326	1.59674
H	-2.502499	-0.968649	-0.235194
H	-2.083904	1.472793	-0.060917
H	0.312397	2.245134	0.492221
H	2.060001	0.437356	0.950896
