18

C	1.549259	-0.769348	0.5334
C	3.016628	-0.736837	0.154521
N	3.516396	0.625817	0.152685
C	4.91521	0.764086	-0.154078
C	5.262257	2.204056	-0.538622
C	5.832826	0.334223	0.980261
O	5.444496	0.082729	2.089876
H	1.149163	-1.793075	0.486867
H	0.96037	-0.129078	-0.140297
H	1.400636	-0.404186	1.562862
H	3.141643	-1.145069	-0.864439
H	3.586397	-1.40696	0.831531
H	3.347014	1.042204	1.068738
H	5.156886	0.115041	-1.01803
H	5.026994	2.889835	0.290968
H	4.662686	2.50467	-1.408432
H	6.329179	2.319741	-0.784535
H	6.92768	0.29832	0.729254
