14

C	0.908986	0.064672	-0.104741
C	2.401104	-0.015078	-0.030366
C	2.991563	-1.388924	-0.049037
C	3.154645	1.103834	0.047477
C	4.574061	1.131411	0.120714
C	5.786632	1.189309	0.179721
H	0.543846	1.100598	-0.08175
H	0.44657	-0.485419	0.732799
H	0.539232	-0.41278	-1.028651
H	2.604848	-1.986222	0.794435
H	4.088248	-1.368799	0.008049
H	2.696126	-1.923111	-0.968627
H	2.6538	2.078992	0.05719
H	6.858	1.241626	0.237186
