20

C	1.181059	-0.107056	0.768186
C	2.387039	-0.098258	-0.165089
C	2.341646	-1.243175	-1.179395
N	1.313926	-1.044687	-2.184812
C	2.540656	1.269593	-0.835695
C	3.669307	1.349791	-1.849978
O	4.898533	0.864546	-1.363299
H	1.255675	0.688851	1.526208
H	1.08816	-1.067431	1.300113
H	0.242654	0.065996	0.214986
H	3.291099	-0.276899	0.443212
H	2.249014	-2.198141	-0.616821
H	3.318515	-1.285181	-1.686566
H	0.386525	-1.173989	-1.785769
H	1.401409	-1.731798	-2.929245
H	2.689855	2.033248	-0.048852
H	1.602986	1.534498	-1.35232
H	3.761946	2.391101	-2.218863
H	3.415949	0.730593	-2.723884
H	5.125776	1.369908	-0.575709
