17

O	0.996596	2.63762	-1.665536
C	2.372668	2.359988	-1.654
C	2.749719	1.903439	-0.259722
C	4.219033	1.551906	-0.107109
N	5.06314	2.699872	-0.344171
N	6.341106	2.471916	-0.63181
C	7.212874	3.389007	-0.472239
H	0.762632	2.975471	-2.534524
H	2.980526	3.245968	-1.924244
H	2.640182	1.561776	-2.378194
H	2.137055	1.026146	0.003654
H	2.465863	2.694917	0.456747
H	4.515283	0.786853	-0.841929
H	4.393723	1.110874	0.895283
H	4.851864	3.524127	0.224768
H	8.244445	3.179513	-0.767358
H	6.97246	4.386998	-0.062107
