16

O	1.083013	0.342292	-0.368899
C	2.420347	0.125823	-0.084337
C	3.06182	-1.036596	-0.762552
C	3.456603	0.363143	-1.14565
N	4.740004	0.828681	-0.737791
C	5.769294	0.940104	-1.741587
C	5.141497	2.1507	-1.150608
H	0.913513	1.286699	-0.286281
H	2.745403	0.335363	0.944667
H	2.438175	-1.590388	-1.468533
H	3.788915	-1.624617	-0.19803
H	3.064708	0.727345	-2.111104
H	5.503855	0.698507	-2.779265
H	6.776523	0.629311	-1.442998
H	5.674835	2.754058	-0.407563
H	4.456945	2.719724	-1.79463
