16

C	1.276868	-0.13016	0.122675
C	2.749658	-0.077715	-0.166592
C	3.328662	-0.375704	-1.503543
N	3.231445	0.982052	-1.021556
C	4.462434	1.638575	-0.635181
C	5.139286	2.256252	-1.77294
C	5.709205	2.765696	-2.711319
H	1.009354	0.570581	0.929274
H	0.973003	-1.141277	0.435468
H	0.700764	0.14747	-0.771628
H	3.398895	-0.345698	0.682008
H	2.677909	-0.633694	-2.346517
H	4.320713	-0.846079	-1.531089
H	5.17701	0.945958	-0.134517
H	4.219296	2.420689	0.104582
H	6.208078	3.217465	-3.548696
