13

O	0.929953	0.095476	0.380649
C	2.110571	-0.000273	0.162465
C	2.952575	1.241144	-0.084801
O	4.305907	1.162048	0.299527
C	4.922444	-0.023133	0.106406
C	4.304003	-1.196648	-0.063885
C	2.816504	-1.329967	0.020938
H	2.496879	2.09039	0.440467
H	2.887644	1.438609	-1.175019
H	6.010872	0.081028	0.122698
H	4.914948	-2.087281	-0.222749
H	2.387352	-1.829897	-0.867974
H	2.504407	-1.956305	0.875597
