15

C	0.987362	-0.008978	0.005803
C	2.509648	-0.001802	-0.02734
C	3.061315	-0.765707	-1.223768
C	3.044281	1.428953	0.003272
O	4.444555	1.506933	0.003067
H	0.593731	0.522502	0.886992
H	0.592935	-1.036054	0.031367
H	0.57388	0.481332	-0.891599
H	2.873376	-0.498704	0.895285
H	2.6807	-0.335419	-2.165553
H	2.767172	-1.826211	-1.19742
H	4.158908	-0.703729	-1.251664
H	2.603704	1.965945	0.869354
H	2.70397	1.963205	-0.901183
H	4.765144	1.069382	0.798787
