16

N	2.274483	-0.436229	1.482519
C	2.544114	-0.018489	0.11454
C	3.090459	1.371947	0.059152
C	4.175611	1.82151	-0.573732
C	4.299421	3.300254	-0.383556
O	3.180257	3.668795	0.39283
C	2.415288	2.536207	0.727316
H	1.982514	-1.411102	1.494493
H	1.490192	0.089324	1.865167
H	1.65384	-0.059725	-0.554774
H	3.286096	-0.704825	-0.323166
H	4.884085	1.21854	-1.145612
H	5.239602	3.576638	0.137361
H	4.295823	3.852786	-1.344896
H	1.367826	2.660047	0.380095
H	2.379599	2.400054	1.828021
