21

C	1.721794	-0.485323	1.214253
C	2.637081	-0.181319	0.030988
C	3.024838	1.262306	-0.048969
C	4.269198	1.739213	0.042626
C	4.66203	3.187316	-0.01916
C	5.326124	3.623721	1.287557
C	5.577777	3.451675	-1.215181
H	1.429987	-1.546373	1.234886
H	0.798196	0.11315	1.169961
H	2.220587	-0.250141	2.167504
H	2.122138	-0.470759	-0.903671
H	3.544955	-0.804685	0.08652
H	2.198796	1.977262	-0.175638
H	5.098882	1.028149	0.174866
H	3.740969	3.782669	-0.152513
H	6.245761	3.044328	1.473125
H	4.65572	3.469984	2.146637
H	5.606224	4.688458	1.254598
H	6.50889	2.866936	-1.133953
H	5.857673	4.515368	-1.274041
H	5.08996	3.171876	-2.161155
