17

N	0.834961	0.199389	-0.223678
C	2.269138	0.018597	-0.337354
C	3.017292	1.063745	0.47641
C	4.512935	0.885705	0.439098
C	5.315762	1.44112	-0.703089
C	5.430242	2.049715	0.664236
H	0.339693	-0.529943	-0.73124
H	0.558294	1.080329	-0.654585
H	2.657996	0.040004	-1.379446
H	2.523076	-0.981741	0.055709
H	2.648119	1.02969	1.515386
H	2.764277	2.07075	0.095347
H	4.859799	-0.075255	0.837312
H	4.778747	2.00728	-1.470866
H	6.157761	0.859523	-1.087818
H	6.351178	1.887704	1.230875
H	4.974361	3.030729	0.828706
