18

C	2.322723	-0.538522	1.515259
C	2.572143	-0.072486	0.083636
C	2.7416	1.413668	-0.030305
C	1.60143	2.330644	0.290868
N	3.895711	1.83316	-0.389371
O	3.958434	3.202097	-0.437985
C	5.228342	3.60754	-0.877112
H	2.192442	-1.630664	1.555531
H	1.416624	-0.081704	1.943718
H	3.170348	-0.273354	2.166185
H	1.727053	-0.380915	-0.558504
H	3.478485	-0.546419	-0.321608
H	0.661363	1.778535	0.424897
H	1.479242	3.076383	-0.509088
H	1.812063	2.900432	1.210655
H	5.215831	4.706481	-0.881833
H	5.441844	3.240031	-1.895329
H	6.022631	3.252463	-0.198645
