18

C	3.164837	-1.475462	1.18901
C	2.778915	-0.558476	0.069795
C	2.079231	-0.95927	-0.997448
C	3.233454	0.870483	0.209866
N	4.670598	0.95146	0.380375
C	5.47116	1.005287	-0.817267
C	5.309515	2.199142	0.051976
H	4.257737	-1.467617	1.323454
H	2.827293	-2.50624	1.012719
H	2.734059	-1.124983	2.142208
H	1.732888	-1.991808	-1.098388
H	1.822355	-0.26598	-1.803747
H	2.770757	1.311691	1.111729
H	2.877621	1.464341	-0.660039
H	4.949927	1.016237	-1.784377
H	6.40176	0.427817	-0.80885
H	6.118063	2.524338	0.716116
H	4.682819	3.014319	-0.33547
