16

C	1.902696	-0.076765	-0.416231
C	3.191532	-0.288357	0.353287
N	4.111217	0.795878	0.131294
C	5.328311	0.892306	0.762718
C	6.16763	2.052359	0.299387
N	5.771475	0.120972	1.681772
H	1.197817	-0.899839	-0.230069
H	2.088959	-0.037532	-1.502241
H	1.416144	0.864944	-0.117342
H	3.644405	-1.260739	0.070651
H	2.969032	-0.356969	1.43404
H	3.964642	1.366155	-0.690529
H	5.628477	3.004326	0.430191
H	6.418405	1.95297	-0.76944
H	7.094684	2.075459	0.881875
H	5.113114	-0.632668	1.890866
