14

C	0.962238	-0.058254	-0.124519
C	2.465034	0.019182	0.122716
C	2.997343	1.413026	0.060264
N	3.533656	1.973375	1.116721
O	3.904283	3.230757	0.742001
C	3.589664	3.42739	-0.53727
C	3.003231	2.312937	-1.049491
H	0.610282	-1.099492	-0.079027
H	0.694987	0.341149	-1.115403
H	0.407801	0.521581	0.628493
H	2.999201	-0.596583	-0.620324
H	2.716555	-0.389511	1.11283
H	3.843097	4.401983	-0.950605
H	2.632098	2.147627	-2.057268
