13

N	1.036859	0.039406	0.629652
C	2.390234	-0.039398	0.200805
C	2.714625	0.738031	-1.031419
O	4.057895	1.072207	-1.247802
N	4.801919	-0.070395	-1.416336
C	4.02645	-1.090253	-1.389647
C	2.615255	-0.765612	-1.119465
H	0.880238	0.864671	1.204279
H	0.771315	-0.775059	1.178273
H	3.208013	-0.13242	0.93423
H	1.998548	1.445213	-1.457144
H	4.451271	-2.080786	-1.561992
H	1.785597	-1.312786	-1.572205
