15

C	-0.160631	0.707405	0.154375
C	-0.550581	-0.665553	-0.307006
C	0.8937	-0.33505	-0.094905
C	1.684162	-0.896285	1.041773
C	1.103128	-1.690869	2.148386
N	1.875004	-2.337882	1.100431
H	-0.248426	1.544148	-0.54376
H	-0.368217	0.967828	1.196555
H	-0.893438	-0.79096	-1.337096
H	-1.046547	-1.330916	0.404202
H	1.486994	-0.209366	-1.008041
H	2.54301	-0.268823	1.32029
H	0.034982	-1.933111	2.161304
H	1.541576	-1.567403	3.145964
H	2.811024	-2.568873	1.42888
