17

C	1.000002	1.674132	1.451417
C	2.429121	1.296156	1.251791
C	3.19153	1.665816	0.219716
C	4.619977	1.26702	0.055012
C	5.69576	2.332049	0.372337
C	6.154693	1.318969	1.424627
O	5.107366	0.411796	1.089888
H	0.860435	2.207521	2.40721
H	0.356853	0.779417	1.500463
H	0.626132	2.319696	0.642161
H	2.894104	0.651875	2.008328
H	2.782437	2.300171	-0.578087
H	4.759449	0.800732	-0.941335
H	5.294525	3.273527	0.770666
H	6.408942	2.546683	-0.434921
H	7.154416	0.880184	1.253296
H	6.097907	1.654005	2.475319
