16

O	2.041366	-0.324406	0.841822
C	2.953528	-0.139432	-0.193176
C	2.342809	-0.457276	-1.524983
C	1.068889	-0.804203	-1.69878
C	3.474726	1.296361	-0.165047
C	2.547985	2.414583	0.094761
N	3.411648	1.903542	1.153468
H	2.355168	0.265208	1.552077
H	3.839988	-0.802388	-0.062028
H	3.023267	-0.385076	-2.382356
H	0.400271	-0.885817	-0.838035
H	0.668304	-1.024391	-2.691451
H	4.349291	1.493804	-0.79706
H	1.482678	2.197572	0.225225
H	2.775582	3.390094	-0.347759
H	4.20278	2.512855	1.348522
