17

C	0.928731	-0.001618	-0.284988
C	2.442951	0.000624	-0.037131
C	2.873852	1.251168	0.675905
C	3.508689	1.264148	1.851175
C	3.889386	0.023102	2.595997
C	3.508867	-1.230481	1.872378
C	2.873994	-1.237529	0.697097
H	0.620335	-0.896898	-0.848042
H	0.620254	0.883512	-0.863827
H	0.382419	0.006677	0.670426
H	2.92878	-0.007794	-1.033784
H	2.626698	2.200796	0.188175
H	3.776596	2.223127	2.306949
H	4.977437	0.024975	2.801502
H	3.427979	0.031587	3.602512
H	3.776777	-2.181536	2.344445
H	2.626836	-2.195402	0.225722
