18

C	0.946082	-0.351727	-0.057668
C	2.46535	-0.315019	-0.094642
C	3.055386	-1.326431	-1.071349
N	2.91476	1.032995	-0.391496
C	4.109042	1.51	0.052925
C	4.464049	2.910753	-0.397659
O	4.848081	0.859396	0.767479
H	0.549274	0.363471	0.678178
H	0.587555	-1.355983	0.210974
H	0.518625	-0.104915	-1.045033
H	2.863168	-0.541612	0.907807
H	2.717243	-1.123823	-2.101287
H	2.750686	-2.351393	-0.808399
H	4.153763	-1.277085	-1.045596
H	2.374567	1.586318	-1.043797
H	5.365497	2.856951	-1.025747
H	4.723466	3.504216	0.489903
H	3.665595	3.421337	-0.955432
