19

C	0.738251	-0.706205	0.896705
C	0.770462	0.650205	0.220737
N	1.926663	1.441574	0.604038
C	2.356894	2.487689	-0.281987
N	2.067983	1.582152	1.925618
C	2.778795	2.50759	2.451649
C	2.937781	2.580498	3.93352
H	-0.147359	-1.272882	0.570631
H	0.702868	-0.591322	1.988371
H	1.639701	-1.286102	0.644899
H	-0.171017	1.200978	0.432785
H	0.817403	0.51987	-0.871893
H	2.131077	2.202214	-1.317559
H	3.445842	2.644106	-0.205633
H	1.86327	3.459279	-0.067584
H	3.309975	3.264481	1.85141
H	2.3486	1.787368	4.413883
H	2.604954	3.55616	4.326831
H	3.993646	2.463426	4.232258
