13

C	0.885769	-0.11527	-0.07554
C	2.397769	0.005448	0.082457
C	2.900267	1.407828	0.005445
N	3.506124	2.020437	0.979361
N	3.861951	3.286234	0.687693
C	3.524604	3.642289	-0.510743
S	2.714266	2.408908	-1.410369
H	0.570974	-1.165878	0.005188
H	0.550553	0.259997	-1.055202
H	0.360397	0.459512	0.701496
H	2.908095	-0.603136	-0.682811
H	2.721644	-0.375031	1.062427
H	3.729939	4.631211	-0.924563
