17

C	1.075958	-0.004018	-0.030782
C	2.571401	0.001633	0.000941
C	3.481842	-0.589147	-1.098922
C	4.546693	-0.378078	0.006068
C	3.438733	-0.783985	1.009809
C	4.480909	1.140116	0.144726
O	3.06836	1.337719	0.134253
H	0.676099	0.437638	0.894278
H	0.691368	-1.028861	-0.129282
H	0.713095	0.594512	-0.879712
H	3.571656	-0.014532	-2.034547
H	3.282483	-1.649502	-1.30611
H	5.537854	-0.850771	-0.017538
H	3.234618	-1.863908	1.010469
H	3.488648	-0.391125	2.038009
H	4.919416	1.510056	1.088231
H	4.955767	1.674362	-0.697061
