16

C	0.934081	-0.088649	-0.001793
C	2.418392	0.017678	-0.002632
C	3.241011	1.133765	-0.000672
C	2.800593	2.563799	0.003222
C	4.584696	0.657675	-0.00345
C	4.542785	-0.719028	-0.007504
N	3.227492	-1.088428	-0.006722
H	0.484275	0.912941	0.011132
H	0.553527	-0.630364	0.881505
H	0.550574	-0.608524	-0.896929
H	3.669707	3.236905	0.013076
H	2.188433	2.809224	0.887056
H	2.201658	2.818509	-0.887102
H	5.484587	1.271158	-0.002614
H	5.340785	-1.458164	-0.010345
H	2.893365	-2.041397	-0.00861
