13

C	1.062119	-0.137619	0.199201
C	2.260337	-0.052445	0.048988
C	3.704789	0.07511	-0.140745
C	4.340088	1.151066	0.783492
O	5.530186	0.545649	1.205764
C	5.208078	-0.803589	1.30947
O	4.411685	-1.105275	0.196468
H	-0.000143	-0.227401	0.336323
H	3.905297	0.2966	-1.203637
H	3.667751	1.365849	1.635693
H	4.569572	2.088935	0.260341
H	6.128147	-1.405659	1.277782
H	4.652276	-1.007382	2.25225
