15

C	4.437955	-0.841607	-0.386428
O	3.331719	-0.100284	0.053688
C	3.429344	1.234657	0.042855
C	4.46488	1.989498	-0.358005
C	4.449923	3.48637	-0.287072
C	5.400545	3.988077	0.776511
O	6.315311	4.740746	0.582836
H	4.168582	-1.902097	-0.29831
H	5.330644	-0.641778	0.233286
H	4.681986	-0.616282	-1.440107
H	2.503749	1.689182	0.413664
H	5.382808	1.525278	-0.728759
H	3.439508	3.844271	-0.018716
H	4.737295	3.955214	-1.241752
H	5.194	3.572505	1.800058
