12

C	0.942087	-0.100337	-0.00615
C	2.406706	0.081541	-0.003215
C	3.236788	1.16593	-0.003124
O	2.889419	2.458858	-0.005258
N	4.544283	0.759864	-0.000392
C	4.47288	-0.532369	0.001316
O	3.229744	-1.014596	-0.000792
H	0.461896	0.886931	-0.001418
H	0.595246	-0.655945	0.880506
H	0.597029	-0.64619	-0.899617
H	3.708356	2.969339	-0.003762
H	5.291645	-1.250315	0.003746
