17

O	2.128738	-0.379888	-1.344406
C	2.315565	0.019027	-0.013163
C	3.143644	1.278638	-0.005709
C	2.514769	2.567837	-0.575914
C	3.110849	3.357708	0.611223
O	4.274566	4.078416	0.321187
C	3.340498	2.010828	1.337745
H	1.589076	-1.175485	-1.355481
H	2.831361	-0.759584	0.588085
H	1.34937	0.226852	0.496243
H	4.106758	1.055172	-0.495461
H	1.413613	2.531354	-0.549519
H	2.826063	2.898538	-1.578038
H	2.436681	4.069006	1.112943
H	4.879769	3.499199	-0.154962
H	4.30762	1.907733	1.854277
H	2.5348	1.781499	2.054253
