17

C	1.01709	-0.345325	0.147812
C	2.533035	-0.320831	0.038148
C	3.11201	1.084848	0.105379
C	4.625065	1.116984	-0.001803
C	5.201409	2.516499	0.069387
O	6.54304	2.587035	-0.031756
O	4.551024	3.511214	0.205964
H	0.621864	-1.37092	0.098876
H	0.5493	0.232362	-0.665346
H	0.679776	0.097229	1.098909
H	2.845168	-0.800679	-0.907327
H	2.973596	-0.937063	0.84269
H	2.81214	1.575694	1.046472
H	2.685099	1.711174	-0.695767
H	4.961301	0.653038	-0.948056
H	5.087308	0.515833	0.803622
H	6.916305	1.703878	-0.135635
