15

C	0.975164	0.029294	-0.070891
C	2.492919	-0.037235	-0.025218
O	2.943198	0.078344	-1.350833
C	3.008731	-1.304499	0.695665
N	3.218834	-0.822916	2.050999
N	3.448929	0.518453	2.041647
C	3.058642	1.003275	0.922414
H	0.55273	-0.123621	0.932613
H	0.591495	-0.750084	-0.746993
H	0.649874	1.00777	-0.452873
H	3.897747	0.210497	-1.328199
H	3.955558	-1.621355	0.211806
H	2.299508	-2.144265	0.657456
H	3.865892	-1.322999	2.649895
H	3.070178	2.080092	0.734052
