18

C	2.044418	-4.084345	0.630725
C	3.319577	-3.514269	1.160619
C	4.181633	-4.178316	1.946202
O	3.474133	-2.241553	0.732546
C	4.604335	-1.509729	1.151774
C	4.484442	-0.119314	0.575416
N	3.324904	0.549629	1.124271
H	2.042764	-4.046578	-0.470281
H	1.189655	-3.482012	0.976924
H	1.903007	-5.12257	0.954748
H	3.957975	-5.205425	2.233253
H	5.105976	-3.739411	2.321334
H	5.529585	-2.002527	0.799296
H	4.631088	-1.459455	2.255799
H	4.490517	-0.211275	-0.532288
H	5.39581	0.437796	0.852138
H	2.494553	0.003352	0.900193
H	3.197829	1.462249	0.694191
