18

C	1.022605	0.076241	0.018348
C	2.532	0.02359	0.117446
C	3.121949	-1.151759	0.965611
C	3.961926	-0.299336	1.917265
C	4.527137	0.753855	0.944539
N	3.111486	1.217196	0.787932
C	2.969806	0.833792	2.232299
H	0.641912	-0.804393	-0.521564
H	0.705789	0.98057	-0.52198
H	0.542936	0.08688	1.009187
H	2.943985	0.002102	-0.905021
H	3.725224	-1.855377	0.371135
H	2.344074	-1.729397	1.490961
H	4.564495	-0.812292	2.682512
H	5.017688	0.419751	0.014813
H	5.136296	1.530745	1.431121
H	3.382679	1.625666	2.875288
H	1.951652	0.581588	2.568048
