17

N	2.586171	-1.498186	-0.324918
C	1.990879	-0.181565	-0.43699
C	2.943212	0.889957	0.056642
C	3.648584	0.592399	1.358327
N	2.708958	0.101547	2.349113
C	3.539299	1.853462	-0.867599
O	2.425997	2.208404	-0.071393
H	2.023803	-2.180408	-0.827055
H	2.560303	-1.77108	0.658154
H	1.047539	-0.056744	0.133136
H	1.747172	0.031318	-1.489955
H	4.207003	1.50336	1.655002
H	4.38893	-0.198574	1.155056
H	2.036562	0.830723	2.581806
H	3.188019	-0.1375	3.21374
H	3.348086	1.751632	-1.944458
H	4.486893	2.346904	-0.610498
