17

C	2.457523	-0.703589	-1.485451
C	2.694639	-0.159293	-0.085256
N	3.291841	1.150403	-0.083981
C	4.537113	1.398917	0.379342
O	5.279984	0.571991	0.874443
C	4.946529	2.867058	0.274124
N	4.124008	3.631126	-0.643833
H	1.990264	-1.699483	-1.442873
H	3.406886	-0.793057	-2.034946
H	1.789753	-0.045311	-2.064825
H	3.384699	-0.810725	0.472106
H	1.7448	-0.134464	0.477876
H	2.81403	1.957135	-0.479975
H	6.031538	2.868758	0.061155
H	4.838003	3.279537	1.291266
H	4.471536	3.550999	-1.596906
H	4.123233	4.620146	-0.411455
