14

C	1.4683	-0.259818	-0.002615
C	0.437193	-1.34633	0.005014
C	-0.878224	-1.114511	0.021081
C	-1.474884	0.259594	0.033425
C	-0.443836	1.346116	0.020755
C	0.871581	1.114296	0.004668
H	2.14724	-0.380297	0.864588
H	2.132199	-0.377844	-0.88159
H	0.801483	-2.379284	-0.00322
H	-1.57374	-1.96026	0.025844
H	-2.159624	0.381126	-0.828972
H	-2.132876	0.376543	0.917058
H	-0.808171	2.379078	0.025083
H	1.56705	1.960051	-0.003998
