13

C	0.952681	0.222463	0.009333
C	2.41004	-0.090105	-0.002246
N	3.345695	0.810918	-0.010826
N	4.589644	0.30401	-0.017806
C	4.628944	-0.994419	-0.01499
C	5.889844	-1.789558	-0.023119
S	3.043552	-1.709985	-0.002882
H	0.339141	-0.686847	-0.009528
H	0.695566	0.840702	-0.863698
H	0.699503	0.799516	0.91149
H	5.693172	-2.869202	-0.003038
H	6.504268	-1.525957	0.850881
H	6.475871	-1.554528	-0.924541
