14

O	1.292037	0.042673	0.61516
N	2.332274	0.078307	-0.300479
C	2.881247	1.223624	-0.302053
C	2.558909	2.439686	0.51928
C	3.303645	3.535754	-0.238841
C	4.446891	2.748989	-0.869566
O	3.909051	1.463035	-1.144414
H	0.95339	-0.851047	0.509748
H	2.94678	2.299051	1.54271
H	1.472849	2.579487	0.606992
H	2.659693	3.959911	-1.025173
H	3.652514	4.360982	0.397358
H	4.819912	3.172735	-1.812131
H	5.300208	2.648823	-0.172711
