17

C	2.287551	-0.995073	1.928167
C	2.97043	-0.517953	0.886883
C	3.586786	0.859749	0.777861
C	3.543837	1.627885	2.069724
C	2.875964	2.763651	2.268142
C	5.012935	0.739131	0.295226
C	5.465771	1.189041	-0.874735
H	1.870812	-2.005173	1.914195
H	2.108225	-0.391896	2.823299
H	3.119883	-1.151617	0.003943
H	3.017503	1.419048	0.012167
H	4.124422	1.194025	2.89408
H	2.284366	3.225148	1.470612
H	2.896871	3.277167	3.23321
H	5.699457	0.226811	0.98183
H	4.806976	1.703034	-1.582675
H	6.51056	1.062042	-1.17
