15

C	3.109099	-1.1703	-0.484312
C	2.470732	0.043223	0.1783
C	3.421533	1.206247	0.282469
N	3.689663	2.063541	-0.852517
C	2.904732	2.603857	0.253186
C	3.503323	3.652078	1.048116
N	3.964011	4.483399	1.70922
H	2.401826	-2.010733	-0.544871
H	3.989786	-1.51294	0.080621
H	3.444477	-0.938645	-1.50725
H	2.119473	-0.217704	1.190592
H	1.574424	0.358647	-0.384996
H	4.311191	1.023322	0.899227
H	3.072186	1.845916	-1.635492
H	1.821433	2.723683	0.124697
