16

C	0.926129	-0.009803	0.057124
C	2.437967	0.012402	0.022759
C	3.188862	1.058404	0.879797
C	4.231199	-0.021833	1.246348
O	5.418082	0.029292	0.505178
C	3.217051	-1.089634	0.778702
H	0.522849	-0.879891	-0.485277
H	0.498031	0.896716	-0.399954
H	0.560427	-0.064868	1.09589
H	2.776764	0.066445	-1.027369
H	2.591727	1.371168	1.751484
H	3.58501	1.960055	0.385997
H	4.540112	-0.067884	2.302083
H	5.189103	0.076295	-0.42954
H	3.635192	-1.931186	0.203496
H	2.628405	-1.495618	1.617012
