16

C	1.283278	-0.455648	-0.753481
N	2.615999	-0.187082	-0.291725
C	3.473904	0.62302	-0.952292
O	3.212298	1.220922	-1.980058
C	4.865031	0.710461	-0.306857
C	5.410073	2.12171	-0.392286
O	4.889488	0.188341	1.005312
H	1.147202	-1.517847	-1.015975
H	1.114285	0.150987	-1.653467
H	0.528818	-0.185088	0.003228
H	2.984745	-0.63988	0.536605
H	5.505328	0.039181	-0.906123
H	4.804747	2.807655	0.224312
H	5.355237	2.479296	-1.428787
H	6.451185	2.155559	-0.042021
H	4.586662	0.884904	1.599685
