13

N	0.883718	-0.155171	0.055978
C	2.284144	-0.046287	0.030512
C	3.167996	1.009884	0.05225
C	4.494352	0.478453	0.007648
C	4.35998	-0.893798	-0.040706
O	5.251649	-1.903475	-0.095079
N	3.039939	-1.203513	-0.02648
H	0.450293	0.282122	-0.753549
H	0.482623	0.271574	0.887171
H	2.892846	2.062384	0.096292
H	5.430473	1.034132	0.010475
H	6.135793	-1.524446	-0.106718
H	2.651715	-2.136357	-0.050534
