17

O	1.051446	-0.03934	0.114748
C	2.456728	0.00137	0.04946
C	2.930192	-1.34926	-0.47732
C	2.523437	-1.497798	-1.940047
C	3.001331	-0.297605	-2.743766
O	2.534086	0.915997	-2.201881
C	2.950976	1.105727	-0.879516
H	0.706783	0.839744	-0.070079
H	2.889669	0.185395	1.055192
H	2.497794	-2.150502	0.141333
H	4.027876	-1.409675	-0.373123
H	2.92832	-2.425966	-2.374354
H	1.42503	-1.549337	-1.999337
H	4.112845	-0.288107	-2.78191
H	2.636482	-0.337234	-3.780807
H	4.05883	1.162583	-0.811157
H	2.554745	2.084248	-0.557645
