17

C	2.99243	-1.207276	-0.376864
C	2.402562	0.099552	0.131586
C	3.406819	1.22172	0.151002
C	3.65628	2.100019	-1.02381
N	2.921039	2.577616	0.122583
C	3.559403	3.547052	0.974309
H	2.245238	-2.015487	-0.374867
H	3.838748	-1.536437	0.24753
H	3.367473	-1.099745	-1.407077
H	2.001771	-0.036331	1.151152
H	1.550109	0.413591	-0.49224
H	4.292699	1.034906	0.780343
H	3.080723	1.965538	-1.947506
H	4.682324	2.463569	-1.173734
H	3.10864	3.512068	1.978008
H	3.400127	4.558794	0.569097
H	4.655006	3.391792	1.084618
