16

C	0.945569	-0.095063	-0.045739
C	2.463779	-0.034655	-0.008953
O	3.030965	-0.742019	-1.077266
C	2.994149	1.416568	0.033831
C	2.543763	2.207048	1.264472
C	4.455861	1.419891	-0.064527
N	5.611385	1.457833	-0.112665
H	0.48363	0.31536	0.863266
H	0.631164	-1.143034	-0.147336
H	0.551672	0.467051	-0.910085
H	2.824934	-0.545691	0.90024
H	2.715144	-0.355819	-1.902588
H	2.62143	1.928664	-0.874346
H	2.847408	1.692261	2.188864
H	1.451477	2.325727	1.273247
H	2.993439	3.208996	1.273506
