14

O	1.078645	0.017546	0.596077
C	2.413627	0.02569	0.169292
C	2.70545	1.181813	-0.775493
O	4.047709	1.168059	-1.220938
N	4.512345	-0.002364	-1.747091
C	3.878686	-1.080952	-1.492219
C	2.681711	-1.247104	-0.605531
H	0.940869	0.762239	1.190786
H	3.119218	0.092446	1.021291
H	2.571079	2.158784	-0.287062
H	2.013009	1.120912	-1.637544
H	4.318703	-1.968227	-1.961004
H	1.787223	-1.479979	-1.20997
H	2.831745	-2.108205	0.064946
