17

C	2.264501	0.003194	-0.44446
C	2.25663	1.281504	-0.046213
O	3.294524	2.121442	0.078615
C	4.576213	1.63571	-0.252567
C	5.576033	2.732628	-0.058477
C	6.096601	3.029452	1.315486
C	6.991138	2.383595	0.300049
H	1.318436	-0.537426	-0.48768
H	3.168777	-0.534578	-0.733057
H	1.326344	1.785538	0.234695
H	4.580082	1.279972	-1.30065
H	4.827746	0.768224	0.388988
H	5.430395	3.58999	-0.724229
H	5.724964	2.415357	2.141001
H	6.278362	4.073405	1.582239
H	7.795957	2.974859	-0.143427
H	7.239227	1.326243	0.433887
