14

C	0.945232	-0.029157	0.258639
C	2.421923	-0.043112	-0.043594
C	2.927216	1.198566	-0.752337
O	4.297401	1.072491	-1.042941
N	4.63602	-0.09199	-1.696492
C	3.827558	-1.073128	-1.594388
O	2.687723	-1.158078	-0.894196
H	0.704722	0.773086	0.971829
H	0.639935	-0.989165	0.698443
H	0.362527	0.12641	-0.661816
H	3.008958	-0.175889	0.883494
H	2.82296	2.093546	-0.122875
H	2.347035	1.347002	-1.684657
H	4.07591	-1.991661	-2.132659
