15

O	2.713715	-0.835319	0.792675
C	2.347555	-0.003512	-0.272368
C	2.897204	1.396478	-0.017941
C	2.357844	1.996596	1.292765
O	2.787088	3.308532	1.49483
C	4.359308	1.436214	-0.014972
C	5.56805	1.508482	0.033649
H	2.409508	-1.727797	0.605733
H	1.245214	0.079515	-0.372447
H	2.738835	-0.369999	-1.241357
H	2.547972	2.046118	-0.841134
H	2.633521	1.319854	2.123122
H	1.257072	2.019605	1.238099
H	3.751535	3.293843	1.534798
H	6.640979	1.55962	0.062089
