16

O	0.801379	-0.053599	-0.118227
C	2.153993	0.021313	0.167226
C	3.077061	-0.84493	-0.627919
C	2.524372	-1.406449	-1.942887
N	2.64753	-0.354922	-2.953028
C	2.577315	0.908604	-2.222557
C	3.111024	0.655631	-0.808915
H	0.425222	0.827937	-0.022138
H	2.393859	0.139664	1.234373
H	3.876092	-1.378932	-0.105949
H	3.062724	-2.312321	-2.257296
H	1.464328	-1.677849	-1.815678
H	3.579254	-0.423514	-3.357562
H	3.147862	1.692752	-2.74117
H	1.527351	1.247147	-2.177785
H	3.934933	1.263676	-0.423237
