19

C	1.418502	0.177	-1.86181
C	0.82737	0.453982	-0.48906
C	1.733623	1.264148	0.427088
C	2.005909	2.674737	-0.068409
O	1.074402	1.305481	1.687611
C	1.786111	1.519319	2.804152
C	3.105019	1.699795	2.949435
H	0.755646	-0.475137	-2.449899
H	2.394616	-0.329304	-1.783776
H	1.56867	1.099531	-2.443248
H	0.606673	-0.494283	0.026825
H	-0.135176	0.985589	-0.579123
H	2.68969	0.717383	0.544615
H	1.055239	3.201957	-0.241686
H	2.5736	2.65946	-1.009872
H	2.586736	3.246134	0.66897
H	1.120184	1.524589	3.673558
H	3.811247	1.713759	2.117791
H	3.504199	1.842511	3.95403
