16

C	0.923738	-0.033129	-0.029014
C	2.443454	-0.080242	0.007494
C	2.996596	0.042103	1.412904
C	2.997985	-1.274457	-0.789092
C	3.425571	-0.57577	-2.041274
N	3.380088	0.696202	-1.963725
O	2.918243	1.076027	-0.743856
H	0.56637	-0.080762	-1.068672
H	0.562101	0.905875	0.414471
H	0.491355	-0.877514	0.52971
H	4.096148	0.052708	1.392051
H	2.660722	-0.799713	2.037684
H	2.652013	0.977566	1.87761
H	2.241275	-2.054595	-0.967911
H	3.858579	-1.760426	-0.296253
H	3.79163	-1.042964	-2.957798
