17

C	2.373581	-1.038342	1.044004
C	2.202736	-0.057341	-0.113622
C	2.695621	1.325851	0.236396
N	2.019966	2.27007	0.762679
N	4.026073	1.589222	-0.065194
O	4.886857	0.508387	0.02865
C	5.622935	0.359548	-1.160304
H	1.971586	-2.028574	0.782052
H	1.842464	-0.681545	1.939372
H	3.436553	-1.150887	1.298624
H	1.138614	0.029195	-0.384428
H	2.734472	-0.426995	-1.00358
H	1.037678	2.003784	0.838397
H	4.386493	2.390199	0.454274
H	6.270087	-0.516345	-1.010209
H	6.253394	1.243558	-1.363648
H	4.96497	0.187315	-2.029913
