16

N	2.726725	-0.65743	-1.196144
C	2.327643	-0.029878	0.04469
C	2.826881	1.394869	0.077788
O	4.23083	1.358052	0.078024
C	4.8205	2.618069	-0.045473
C	6.275015	2.510869	-0.007231
C	7.482393	2.441946	0.022032
H	2.463469	-1.639492	-1.208706
H	3.742657	-0.62178	-1.268152
H	2.694437	-0.534944	0.964508
H	1.226589	-0.006689	0.111538
H	2.448373	1.921455	0.978589
H	2.453856	1.936141	-0.815696
H	4.490053	3.295903	0.770963
H	4.517798	3.108349	-0.995553
H	8.55457	2.374712	0.049163
