13

C	1.937382	-0.983464	-0.187838
N	2.99403	-0.469408	0.295875
N	3.163617	0.855172	-0.087258
C	4.228516	1.364596	0.387839
C	4.597147	2.781555	0.066367
C	4.930829	3.556883	1.255976
C	5.204182	4.179911	2.257079
H	1.710827	-2.026833	0.057451
H	1.252444	-0.413755	-0.836504
H	4.898587	0.773892	1.034962
H	3.76308	3.243207	-0.485732
H	5.469634	2.772405	-0.614244
H	5.444184	4.733968	3.145777
