18

C	3.043664	-1.184849	-0.438891
C	2.429698	0.070101	0.164348
O	1.902299	-0.180575	1.449721
C	3.395932	1.229184	0.177482
C	3.518017	2.153147	-1.007457
C	2.89058	2.645794	0.256583
N	3.519257	3.680844	1.016802
H	3.376824	-1.010176	-1.472857
H	2.316446	-2.010264	-0.433536
H	3.92473	-1.500359	0.145961
H	1.556524	0.363706	-0.445427
H	2.632873	-0.461852	2.01169
H	4.331037	1.03081	0.720611
H	2.878625	1.973881	-1.877389
H	4.514037	2.527275	-1.263351
H	1.797462	2.742465	0.235464
H	4.52797	3.668398	0.884478
H	3.348765	3.54132	2.011547
