17

O	2.82449	1.807644	-1.575371
C	2.312514	1.581386	-0.511147
C	3.006066	0.919586	0.64623
C	4.454425	0.577159	0.385583
C	5.4881	1.716683	0.268338
C	6.492141	0.829163	1.028377
C	5.304297	-0.016171	1.52854
H	1.242236	1.862919	-0.321179
H	2.414613	0.02119	0.909529
H	2.900429	1.588215	1.522589
H	4.515555	-0.062833	-0.510092
H	5.18492	2.591686	0.867138
H	5.745902	2.063023	-0.742152
H	7.134791	0.259248	0.339195
H	7.13529	1.30694	1.782533
H	5.421357	-1.110387	1.571428
H	4.947103	0.331729	2.511861
