17

C	1.954507	-0.379994	1.392256
C	2.540348	0.006639	0.03598
C	3.091475	1.397481	0.011083
C	4.38147	1.777475	-0.140643
C	4.478915	3.267619	-0.080963
C	3.062512	3.700998	0.127358
C	2.274095	2.608236	0.179894
H	1.54177	-1.400226	1.372488
H	1.142814	0.302951	1.688711
H	2.723994	-0.337473	2.178522
H	1.755806	-0.082954	-0.736974
H	3.334625	-0.702691	-0.246294
H	5.233	1.110612	-0.287272
H	4.909699	3.698929	-1.004646
H	5.139764	3.61056	0.738087
H	2.745137	4.740864	0.216609
H	1.190688	2.603295	0.321774
