14

C	0.872471	0.002898	0.039821
C	2.362	-0.077521	-0.009975
C	3.195548	0.96655	-0.012454
C	4.688662	0.875283	-0.054148
N	5.217463	1.662807	-1.153386
H	0.474171	-0.505031	0.934743
H	0.415047	-0.498975	-0.82969
H	0.521251	1.045084	0.056311
H	2.795414	-1.087193	-0.041295
H	2.790635	1.987145	0.00014
H	4.985436	-0.196041	-0.056489
H	5.092792	1.300241	0.883314
H	4.940382	1.251045	-2.042691
H	6.234828	1.670478	-1.137021
