14

C	1.057554	-0.829364	-0.038602
C	2.249932	0.097806	0.083096
N	1.828297	1.451289	0.34393
C	2.715647	2.458463	0.596821
N	3.986184	2.410928	0.704471
C	2.065659	3.753586	0.778136
N	1.52621	4.768521	0.911048
H	1.388907	-1.858882	-0.232578
H	0.40252	-0.528594	-0.87221
H	0.462011	-0.831401	0.887373
H	2.862685	0.053518	-0.838921
H	2.904134	-0.239944	0.908217
H	0.86092	1.697859	0.18022
H	4.34009	1.465055	0.549221
