17

C	1.888939	-1.587106	0.610279
C	3.216051	-1.026678	0.124048
C	3.158929	0.46712	-0.141132
C	4.467193	1.040671	-0.616649
O	5.484713	0.421266	-0.786877
O	4.367626	2.359425	-0.834141
C	5.548235	3.002378	-1.280762
H	1.954953	-2.669341	0.797007
H	1.087817	-1.423951	-0.1291
H	1.570148	-1.10695	1.549463
H	3.536623	-1.540838	-0.796576
H	4.011036	-1.228208	0.860376
H	2.860583	1.028502	0.761443
H	2.393155	0.715958	-0.896421
H	5.293037	4.060353	-1.414849
H	5.895627	2.57269	-2.232286
H	6.358075	2.896739	-0.542482
