19

C	0.199994	-0.385599	0.432902
C	1.615251	-0.376714	-0.130492
C	1.992028	-1.708283	-0.749148
O	1.767603	0.594472	-1.144732
C	1.896635	1.915996	-0.702884
C	2.012591	2.814988	-1.889914
C	2.92432	3.775819	-2.032816
H	-0.070801	0.582759	0.879267
H	0.095857	-1.151896	1.216338
H	-0.520876	-0.605697	-0.369854
H	2.325634	-0.151893	0.693802
H	1.314534	-1.936594	-1.586271
H	1.923857	-2.521471	-0.011317
H	3.017801	-1.669061	-1.14208
H	2.778436	2.034328	-0.038677
H	1.011172	2.227031	-0.107415
H	1.259261	2.646293	-2.668854
H	3.694727	3.952394	-1.274205
H	2.937099	4.425777	-2.911831
