14

O	2.669962	-0.725012	-1.224143
C	2.249448	-0.095638	-0.036383
C	2.898486	1.273453	0.030088
C	4.41694	1.211835	0.017348
C	5.036455	0.713496	1.290517
O	4.425597	0.392689	2.276601
H	2.343267	-1.628995	-1.223058
H	2.536221	-0.677091	0.860526
H	1.148202	0.02816	-0.009988
H	2.551751	1.784039	0.942719
H	2.553117	1.866056	-0.832491
H	4.867938	2.200317	-0.187218
H	4.769394	0.562003	-0.803981
H	6.158461	0.66042	1.274803
