15

C	1.791244	-0.671402	-0.989617
C	2.902902	-0.274209	-0.021946
C	3.077919	1.204953	0.075558
C	4.207628	1.875365	-0.185053
C	4.392245	3.343061	-0.026549
O	3.281753	4.104507	-0.052486
O	5.472242	3.84101	0.128344
H	1.661187	-1.763448	-1.01354
H	2.016266	-0.333861	-2.012991
H	0.825904	-0.228434	-0.696521
H	3.856094	-0.740893	-0.316973
H	2.662052	-0.663716	0.983965
H	2.185185	1.759585	0.402964
H	5.124519	1.344573	-0.458258
H	2.527121	3.572569	-0.330506
