12

C	1.092651	0.071027	0.114585
C	2.398176	-0.044526	-0.128154
C	3.284086	-1.273252	-0.127683
C	4.618246	-0.680118	-0.481221
C	4.446495	0.633846	-0.635571
O	3.165191	1.056443	-0.439141
H	0.602981	1.044797	0.071779
H	0.501448	-0.811007	0.360548
H	2.937535	-2.022811	-0.860762
H	3.282521	-1.77269	0.857072
H	5.553489	-1.22445	-0.592556
H	5.153951	1.421732	-0.891354
