15

O	2.992981	-0.667489	1.247964
C	2.440129	0.15918	0.558227
N	3.059869	1.019201	-0.285281
C	4.492411	1.09678	-0.428256
C	5.003363	2.459717	-0.040385
C	6.018811	3.172197	-0.843591
N	4.61274	3.535457	-0.942834
H	1.32991	0.292268	0.548138
H	2.509022	1.707781	-0.784307
H	4.781319	0.884461	-1.471572
H	4.924235	0.313229	0.210541
H	4.980464	2.666058	1.038068
H	6.444547	2.691768	-1.731724
H	6.708748	3.844182	-0.321281
H	4.42443	4.394049	-0.428579
