20

C	0.968779	0.124061	0.196389
C	2.397455	-0.236751	-0.196679
C	2.460658	-0.815953	-1.60632
C	3.33497	0.962778	-0.046325
N	3.096479	2.121687	-0.85778
C	3.885823	1.248571	1.32138
C	4.780118	0.684057	0.252521
H	0.927574	0.525419	1.220922
H	0.303498	-0.751682	0.145141
H	0.553546	0.888377	-0.481856
H	2.756097	-1.011211	0.504474
H	2.110358	-0.080495	-2.349865
H	1.822276	-1.707443	-1.703688
H	3.489552	-1.100689	-1.875505
H	3.150223	1.891946	-1.848006
H	2.170301	2.506225	-0.683308
H	3.585908	0.595451	2.146001
H	4.021321	2.299335	1.587045
H	5.514301	1.356285	-0.197129
H	5.096792	-0.359317	0.340216
