15

C	1.021136	-0.030091	0.182238
C	2.548351	-0.023852	0.015622
O	3.155554	-0.712251	1.09483
C	2.918616	-0.809981	-1.222217
C	3.388032	-0.316607	-2.364554
C	3.028738	1.36944	-0.043627
C	3.399269	2.522418	-0.050478
H	0.526271	0.475477	-0.658738
H	0.738669	0.486452	1.11346
H	0.669472	-1.070616	0.237924
H	2.944853	-0.231145	1.90326
H	2.739704	-1.884629	-1.10195
H	3.581257	0.753262	-2.486796
H	3.600461	-0.969965	-3.214119
H	3.742669	3.540609	-0.054976
