18

C	1.141765	-0.087767	-0.11725
C	2.628659	0.13305	-0.107112
N	3.481626	-0.387379	-1.175467
C	3.328906	1.064722	-1.02471
C	2.611495	1.849176	-2.093396
C	4.637898	1.687046	-0.579436
O	5.608569	1.543578	-1.577549
H	0.636962	0.611267	0.567469
H	0.902433	-1.109766	0.2166
H	0.703165	0.045334	-1.116916
H	3.076329	0.007053	0.888599
H	2.901495	-0.720897	-1.9467
H	1.75275	1.306922	-2.514043
H	3.318356	2.064702	-2.90933
H	2.248472	2.811385	-1.699667
H	4.955618	1.220479	0.373972
H	4.511168	2.766025	-0.392491
H	5.613394	0.598581	-1.784473
