21

C	2.908229	-1.057745	-0.691766
C	2.394667	0.155415	0.072534
C	3.378576	1.299733	0.091312
C	3.500821	2.293266	-1.040138
C	2.640984	2.235819	-2.276204
C	2.939881	2.724229	0.288173
C	3.692109	3.661166	1.194167
H	2.184506	-1.887689	-0.67338
H	3.851369	-1.428249	-0.25945
H	3.107877	-0.806535	-1.745386
H	2.161522	-0.130581	1.113075
H	1.437924	0.489925	-0.361202
H	4.332579	1.041631	0.56935
H	4.526503	2.630792	-1.23391
H	1.614997	1.911228	-2.047466
H	3.051981	1.53762	-3.0237
H	2.570368	3.227651	-2.750756
H	1.850482	2.865291	0.293706
H	4.775753	3.46562	1.151467
H	3.375644	3.547935	2.244108
H	3.532677	4.713968	0.907956
