14

N	1.145508	0.266398	-0.053424
C	2.56093	-0.062793	-0.067119
C	2.889954	-0.857469	-1.253491
C	3.16081	-1.518005	-2.230782
C	3.353486	1.232419	-0.059264
C	3.758614	1.846089	1.205895
O	4.68157	1.15948	0.388253
H	0.888418	0.644689	0.855869
H	0.583314	-0.567242	-0.205792
H	2.909072	-0.647848	0.81314
H	3.406361	-2.098982	-3.100609
H	3.171296	1.872574	-0.933294
H	3.503257	1.35108	2.153579
H	3.8866	2.934562	1.268752
