15

C	2.516542	-0.260867	1.584939
C	2.687631	0.007068	0.092403
C	3.123113	1.391132	-0.202852
C	4.184835	1.911153	-0.827443
O	4.081998	3.282053	-0.885386
C	3.065379	3.58226	0.038397
O	2.286775	2.417927	0.187206
H	2.153102	-1.283586	1.764872
H	1.792335	0.441963	2.022681
H	3.47106	-0.136768	2.118757
H	1.727871	-0.169245	-0.426133
H	3.417378	-0.686126	-0.352972
H	5.034794	1.442995	-1.315913
H	2.443833	4.41016	-0.335215
H	3.517814	3.852862	1.020689
