16

C	0.956233	-0.021585	0.078136
C	2.46019	-0.134381	0.034106
O	3.009823	1.15672	0.00293
C	4.399592	1.182176	-0.034252
C	4.818987	2.646471	-0.054566
C	6.264067	2.818174	-0.09194
N	7.41504	2.933665	-0.121831
H	0.492191	-1.017948	0.103124
H	0.584539	0.514484	-0.807662
H	0.638199	0.534379	0.972555
H	2.782368	-0.710108	-0.858878
H	2.836465	-0.689064	0.919182
H	4.794073	0.662697	-0.932098
H	4.841013	0.674435	0.848321
H	4.4156	3.151684	0.8376
H	4.371129	3.140433	-0.931686
