15

C	0.974205	0.023377	0.002831
C	2.427322	0.003521	-0.002449
C	3.639941	-0.029218	-0.004207
C	5.101753	-0.011608	-0.02036
O	5.649771	-0.648107	-1.164107
C	5.668761	1.407819	0.070799
O	7.058773	1.369497	0.00992
H	0.587402	1.053897	-0.019254
H	0.574875	-0.468294	0.903793
H	0.57009	-0.506603	-0.873978
H	5.490437	-0.581911	0.840899
H	5.145165	-0.348287	-1.930236
H	5.366104	1.875544	1.021297
H	5.220078	2.01222	-0.748392
H	7.267004	0.730113	-0.686076
