15

C	1.102405	-0.51123	2.232627
C	1.336587	0.115726	1.079301
C	2.344984	1.203504	0.880482
C	3.356902	0.896196	-0.214327
O	2.720087	0.681017	-1.477826
C	2.411503	1.763146	-2.188485
O	2.619494	2.898129	-1.867244
H	0.350299	-1.300902	2.312091
H	1.650289	-0.254476	3.145612
H	0.766833	-0.174373	0.188057
H	2.898123	1.390124	1.815606
H	1.842403	2.150264	0.616153
H	3.894636	-0.038873	-0.004386
H	4.079059	1.721411	-0.310216
H	1.930166	1.449178	-3.138705
