12

N	1.035936	-0.169442	-0.2057
C	2.389733	0.049087	-0.033106
C	3.182435	1.156949	0.012439
C	4.543229	0.680277	0.049124
C	4.453807	-0.673189	0.056713
O	5.37454	-1.632159	0.181142
O	3.158126	-1.073966	0.000244
H	0.510453	0.695926	-0.239658
H	0.635323	-0.800336	0.484492
H	2.845057	2.190787	0.010575
H	5.459823	1.262307	0.082233
H	5.083589	-2.40963	-0.310987
