18

C	0.902583	-0.083167	0.10359
N	2.342761	-0.072338	0.11697
C	2.930098	1.215387	-0.173751
C	4.419015	1.165665	-0.069717
C	5.271926	1.575665	-1.023131
C	6.719299	1.530943	-0.899895
C	7.574408	1.945032	-1.846204
H	0.529781	-1.100325	0.297077
H	0.443336	0.272208	-0.846445
H	0.514001	0.563235	0.908491
H	2.712524	-0.768625	-0.52569
H	2.545313	1.933452	0.577133
H	2.634682	1.631847	-1.164649
H	4.812064	0.748579	0.866044
H	4.868493	1.976628	-1.962505
H	7.114407	1.126154	0.040043
H	7.215436	2.355385	-2.795459
H	8.656545	1.888374	-1.704693
