16

C	0.882497	0.055369	-0.277034
C	2.345861	-0.007824	0.089561
C	2.625455	-0.047487	1.571873
C	3.269051	-0.777179	-0.828942
C	3.315637	0.726453	-0.787641
O	4.382474	1.3646	-0.175414
H	0.736871	0.105805	-1.367273
H	0.403407	0.942198	0.169434
H	0.347809	-0.836151	0.090302
H	3.70392	-0.010175	1.774807
H	2.210994	-0.963879	2.022479
H	2.162536	0.816092	2.076628
H	2.850038	-1.270711	-1.711208
H	4.109442	-1.301609	-0.36326
H	2.886356	1.265426	-1.646395
H	5.157361	1.245023	-0.733996
