21

C	3.264197	-1.110399	-0.684105
C	2.658673	-0.126836	0.302854
C	3.297701	1.268838	0.268312
C	2.587663	2.216758	1.2356
C	4.793437	1.22811	0.516018
C	5.263778	0.681307	1.83339
C	5.657744	1.661745	-0.409578
H	2.751934	-2.083648	-0.648916
H	4.332326	-1.28209	-0.478988
H	3.192443	-0.730378	-1.71638
H	2.722113	-0.532832	1.328847
H	1.579545	-0.012247	0.101163
H	3.158048	1.666185	-0.753285
H	2.633868	1.846419	2.272075
H	1.523085	2.315063	0.970939
H	3.038135	3.220398	1.213573
H	4.933264	-0.361256	1.974921
H	4.85315	1.256421	2.678967
H	6.360086	0.701502	1.909824
H	5.31168	2.052293	-1.371207
H	6.7386	1.643358	-0.238675
