14

C	0.99505	0.006932	0.029697
C	2.503688	-0.014907	-0.101007
C	3.038926	-1.263125	-0.840183
C	3.414783	-0.683665	-2.176355
C	3.326349	0.646672	-2.088853
O	2.907417	1.120769	-0.895311
H	0.655906	0.961787	0.456621
H	0.65153	-0.811444	0.68087
H	0.527829	-0.115644	-0.960032
H	2.973188	0.111136	0.8871
H	2.266956	-2.049501	-0.905103
H	3.908555	-1.7133	-0.32918
H	3.745163	-1.246659	-3.047301
H	3.55141	1.409879	-2.835964
