19

C	2.060211	0.91279	-0.419107
O	3.24517	1.651428	-0.394872
C	4.238554	1.171636	-1.266991
C	5.463942	2.071029	-1.213307
C	6.530447	1.551174	-2.167076
C	5.103102	3.527837	-1.515322
O	4.347539	4.136442	-0.513632
H	1.363123	1.366613	0.298936
H	2.231225	-0.141208	-0.126336
H	1.59043	0.918116	-1.422404
H	3.846713	1.141036	-2.30721
H	4.511961	0.130619	-0.995944
H	5.85109	2.047766	-0.178831
H	6.193223	1.615014	-3.215347
H	6.781999	0.498859	-1.962808
H	7.457015	2.137742	-2.080419
H	4.594669	3.559765	-2.506917
H	6.032798	4.111401	-1.628278
H	3.65405	3.50201	-0.280535
