15

N	1.924534	-0.566603	-1.185816
C	2.752354	-0.21669	-0.046443
C	3.063623	1.247112	-0.055623
C	4.288212	1.777013	0.015399
C	4.583789	3.244367	0.019141
O	5.323069	3.640664	1.148614
H	1.63596	-1.540809	-1.138274
H	2.45136	-0.457213	-2.05032
H	3.700576	-0.788466	0.043066
H	2.172197	-0.440164	0.868158
H	2.190845	1.907245	-0.151495
H	5.163215	1.118683	0.103526
H	3.639496	3.81581	-0.087823
H	5.209165	3.500707	-0.853108
H	4.824435	3.370195	1.927229
