15

N	1.462648	-0.357547	-0.779277
C	2.896194	-0.20624	-0.603285
C	3.178897	1.241946	-0.171581
O	2.295202	1.575087	0.858671
C	4.590978	1.39965	0.298287
C	5.576742	1.95172	-0.408017
H	1.167857	-1.327373	-0.718678
H	1.158035	-0.001686	-1.683014
H	3.508594	-0.459817	-1.490186
H	3.213164	-0.874283	0.214566
H	3.02463	1.895221	-1.061041
H	1.496408	1.058569	0.643278
H	4.781502	0.991702	1.298691
H	5.395814	2.379681	-1.399794
H	6.598836	2.004929	-0.023781
