18

N	0.845263	-0.186836	-0.11515
C	2.294651	-0.1676	-0.296776
C	2.650009	-1.488312	-0.98131
O	1.92681	-1.628074	-2.166995
C	2.663334	1.044503	-1.147807
C	4.14884	1.180352	-1.437336
O	4.950481	1.136899	-0.283423
H	0.483511	0.737342	0.107797
H	0.583342	-0.802542	0.652295
H	2.862855	-0.103467	0.651814
H	2.442937	-2.31727	-0.26853
H	3.726911	-1.536477	-1.208141
H	1.046766	-1.285	-1.935315
H	2.307632	1.957894	-0.632328
H	2.115289	0.989953	-2.102429
H	4.322626	2.105012	-2.023829
H	4.483022	0.34673	-2.074551
H	4.716232	1.888563	0.271044
