14

C	0.700887	1.159176	-0.235851
C	-0.737269	1.157362	0.248297
O	-1.407067	0.001901	-0.191589
C	-0.739341	-1.160392	0.233271
C	0.698808	-1.158576	-0.25089
O	1.36861	-0.003121	0.189001
H	0.710766	1.226272	-1.344007
H	1.251042	2.022641	0.16824
H	-1.285837	2.02701	-0.14459
H	-0.747068	1.210152	1.357238
H	-0.749216	-1.227475	1.341428
H	-1.289501	-2.023862	-0.170803
H	1.247389	-2.028231	0.141966
H	0.708587	-1.211357	-1.359832
