14

C	1.030948	0.119191	0.152168
C	2.502054	-0.083089	-0.012859
C	3.163765	-1.239064	-0.022143
S	3.35327	1.473567	-0.210772
N	4.96395	1.070493	-0.372591
O	2.911182	2.045201	-1.476407
O	3.199407	2.203626	1.041393
H	0.829664	0.753243	1.029704
H	0.520752	-0.844771	0.27783
H	0.616924	0.635381	-0.727929
H	2.620749	-2.180057	0.103284
H	4.246708	-1.272957	-0.15435
H	5.502408	1.44755	0.404099
H	5.311759	1.371907	-1.279988
