18

C	1.131036	0.249805	0.199269
C	2.562309	-0.101003	-0.17822
C	2.760994	-1.57848	-0.584615
C	2.830295	-1.572739	-2.11924
C	3.299911	-0.161541	-2.44903
C	2.268092	0.898909	-2.462095
N	3.105666	0.702362	-1.292712
H	1.017492	1.33675	0.328278
H	0.861266	-0.236213	1.148873
H	0.403227	-0.083095	-0.556724
H	3.197962	0.125521	0.693255
H	1.968667	-2.23311	-0.189694
H	3.714849	-1.944914	-0.17449
H	3.521229	-2.334434	-2.508082
H	1.845779	-1.778371	-2.569428
H	4.234902	-0.03565	-3.008495
H	2.431017	1.84325	-2.994488
H	1.221686	0.571093	-2.44677
