13

C	0.71667	0.116746	-0.061945
C	2.161691	-0.115536	0.228783
C	3.116953	0.810649	0.081601
N	4.46742	0.624535	0.344021
C	5.43546	1.576071	0.19537
O	6.605643	1.403694	0.428201
H	0.344918	-0.571409	-0.839934
H	0.531087	1.144844	-0.40796
H	0.091919	-0.053499	0.831332
H	2.44655	-1.113124	0.586091
H	2.872202	1.818192	-0.272816
H	4.789462	-0.279334	0.678343
H	5.017176	2.54557	-0.171188
