17

C	1.04446	0.050879	0.131017
C	2.558449	-0.031986	-0.051551
C	2.976821	-1.262148	-0.892135
C	3.454474	-0.678827	-2.187919
C	3.519391	0.662414	-2.140842
C	3.083595	1.161665	-0.840608
C	3.116234	2.434304	-0.418921
H	0.760398	0.968626	0.668044
H	0.664191	-0.812596	0.699506
H	0.538881	0.06598	-0.847659
H	3.034132	-0.057381	0.941865
H	2.143258	-1.972523	-1.035714
H	3.784479	-1.841053	-0.408072
H	3.734659	-1.290463	-3.049122
H	3.861712	1.31259	-2.948893
H	2.774367	2.712434	0.581511
H	3.4886	3.234784	-1.063077
