12

N	0.83302	0.070698	-0.218325
C	2.206087	0.001012	-0.034356
C	3.13191	1.011365	-0.01164
C	4.48075	0.542771	0.062161
C	4.572621	-0.815065	0.108476
O	5.683732	-1.557215	0.302196
S	2.98034	-1.560686	0.051252
H	0.487366	1.0241	-0.221992
H	0.289661	-0.502181	0.419937
H	2.854263	2.065877	-0.058547
H	5.362307	1.183132	0.102438
H	5.792553	-2.175657	-0.42987
