16

C	1.176231	-0.333724	-0.389954
O	2.5458	-0.101783	-0.289444
C	2.885512	1.249014	-0.291572
C	4.388046	1.345717	-0.163044
O	4.708536	2.718442	-0.16803
N	6.047233	2.905588	-0.019932
C	6.370348	4.133387	-0.028837
H	1.014549	-1.420723	-0.376419
H	0.751944	0.07259	-1.330516
H	0.614357	0.115791	0.45368
H	2.406152	1.79422	0.548555
H	2.558943	1.752834	-1.225744
H	4.876171	0.823501	-1.004124
H	4.720318	0.867814	0.774641
H	7.431609	4.365574	0.088364
H	5.63224	4.939338	-0.147115
