21

C	1.10624	-0.098647	0.206307
N	2.531199	-0.042381	-0.002491
C	3.050529	1.294358	-0.147634
C	4.576501	1.338746	-0.185443
C	5.133453	0.556842	-1.368033
N	4.983859	2.730424	-0.249617
C	6.385647	2.984638	-0.024486
H	0.772605	-1.146333	0.254214
H	0.501904	0.41573	-0.573905
H	0.848009	0.367692	1.171992
H	2.779046	-0.599061	-0.816319
H	2.711793	1.882188	0.726784
H	2.664648	1.833885	-1.044215
H	4.935778	0.843338	0.746914
H	4.758603	0.978959	-2.314428
H	4.851805	-0.505108	-1.306117
H	6.232723	0.588909	-1.393874
H	4.434128	3.265661	0.417641
H	6.994022	2.618507	-0.866769
H	6.794941	2.519277	0.900412
H	6.559106	4.069438	0.039269
