14

C	1.363868	-0.474059	0.220456
O	2.753119	-0.280184	0.211319
N	3.040508	1.018037	-0.119248
C	4.291574	1.216244	-0.193713
O	4.824376	2.41131	-0.483622
C	4.017879	3.510159	-0.593565
C	4.497037	4.65122	-1.080583
H	1.207187	-1.524565	0.500332
H	0.920527	-0.291118	-0.773976
H	0.867675	0.179337	0.958744
H	5.049454	0.439951	-0.033295
H	2.991874	3.367343	-0.245329
H	5.529693	4.730407	-1.426364
H	3.849949	5.526899	-1.135146
