12

O	0.883635	1.362862	0.285149
N	2.184734	1.740134	0.203257
C	2.982141	0.743011	0.148379
C	4.425326	0.940869	0.057165
C	5.284017	-0.092274	-0.000336
C	4.975369	2.334995	0.025662
O	6.153134	2.578038	-0.048487
H	0.403609	2.197589	0.319767
H	2.586417	-0.284711	0.169454
H	4.941188	-1.130098	0.01895
H	6.356643	0.108453	-0.069339
H	4.212447	3.145131	0.075839
