19

C	1.183294	0.947219	-0.903137
N	2.393159	1.226647	-0.17459
C	3.459057	1.769859	-0.981467
C	4.713353	1.965378	-0.176552
C	5.627999	0.791149	0.088306
C	6.076442	1.891636	-0.816598
N	7.181868	2.720792	-0.443889
H	0.431049	0.499307	-0.235763
H	1.314944	0.266847	-1.775303
H	0.753412	1.885436	-1.292319
H	2.725762	0.392839	0.304454
H	3.124802	2.741042	-1.391054
H	3.698404	1.135122	-1.868977
H	4.61416	2.677895	0.651249
H	5.378898	-0.178109	-0.355384
H	6.097322	0.719374	1.074368
H	6.075706	1.646511	-1.886377
H	7.268462	2.774696	0.568385
H	7.038897	3.67331	-0.775521
