15

C	1.020429	-0.113225	0.028761
C	2.49686	0.10012	-0.117409
O	3.074095	-0.229143	-1.368807
C	3.065656	1.128522	-0.990531
C	4.406501	1.766005	-0.703447
C	5.090158	2.220955	-1.908591
C	5.641349	2.596004	-2.919178
H	0.632348	0.428866	0.904992
H	0.796562	-1.182379	0.164831
H	0.486743	0.235605	-0.867183
H	3.106116	-0.210918	0.7459
H	2.371218	1.759002	-1.565757
H	5.039412	1.03719	-0.170321
H	4.257361	2.622396	-0.022078
H	6.129722	2.92396	-3.818002
