15

O	0.996647	0.018954	0.022136
C	2.390478	-0.008116	0.028362
C	2.974593	1.13552	0.841757
C	4.363717	0.616854	1.219239
N	4.15321	-0.808416	1.289595
C	3.005644	-1.241893	0.695598
N	2.597827	-2.448295	0.702668
H	0.680181	-0.662516	-0.579601
H	2.79984	0.028912	-1.004802
H	2.349149	1.250837	1.741279
H	2.994207	2.094092	0.305862
H	5.113375	0.891478	0.450393
H	4.716393	1.027725	2.178992
H	4.795334	-1.458037	1.72181
H	1.702174	-2.51375	0.216012
