17

C	0.948833	-0.00136	-0.006188
C	2.458295	0.0437	0.058137
C	3.173009	1.062829	0.968301
C	4.245206	-0.005063	1.255591
C	3.231493	-1.073228	0.814243
N	3.731704	-2.257048	0.174218
H	0.600539	-0.877133	-0.578704
H	0.530147	0.896246	-0.489066
H	0.514216	-0.068533	1.004834
H	2.882545	0.114437	-0.96114
H	2.570544	1.284016	1.864511
H	3.495385	2.0166	0.524572
H	5.076229	0.057783	0.533368
H	4.670185	-0.078521	2.267681
H	2.629589	-1.381859	1.688926
H	4.207766	-2.018849	-0.69433
H	2.974784	-2.892805	-0.068826
