15

C	-0.46047	1.442072	-0.47357
O	-1.297537	0.575559	0.224539
C	-1.329337	-0.75893	-0.214902
C	-0.229902	-1.612611	0.344178
C	1.053904	-1.227346	0.442259
C	1.632086	0.034311	-0.009232
C	1.005902	1.145753	-0.438851
H	-0.621446	2.435081	-0.018394
H	-0.77866	1.548851	-1.535337
H	-1.309064	-0.806193	-1.324924
H	-2.304899	-1.162893	0.097932
H	-0.506338	-2.611992	0.695164
H	1.766078	-1.941906	0.867792
H	2.727301	0.05635	-0.026246
H	1.631662	1.973173	-0.794938
