17

C	0.944779	-0.158893	-0.185158
C	2.458612	0.061511	-0.045785
C	3.197694	-0.733655	-1.02981
C	3.797822	-1.396265	-1.847534
C	2.83848	1.534014	-0.129613
C	2.607056	2.222375	-1.440576
C	3.339362	2.162679	0.938558
H	0.406953	0.435852	0.567563
H	0.694809	-1.219893	-0.040528
H	0.587763	0.134841	-1.182876
H	2.761501	-0.297398	0.952987
H	4.333017	-1.982123	-2.57164
H	1.535316	2.242179	-1.699063
H	3.121466	1.687965	-2.255572
H	2.969386	3.258953	-1.419059
H	3.506949	1.639436	1.884442
H	3.604486	3.222993	0.901865
