17

C	3.755389	-1.749369	-0.150259
C	2.745789	-0.612585	-0.03703
O	2.035155	-0.656014	1.169446
C	3.391449	0.763337	-0.245828
C	4.383248	1.151948	0.829301
C	5.405041	2.196017	0.469815
O	4.34984	0.655989	1.937258
H	4.239386	-1.766636	-1.139659
H	3.242501	-2.710038	0.001208
H	4.538443	-1.660108	0.619009
H	1.995339	-0.742288	-0.836273
H	2.67717	-0.418797	1.856339
H	2.598404	1.53345	-0.217554
H	3.863076	0.844334	-1.239217
H	6.114081	1.771077	-0.259886
H	5.950415	2.51524	1.36631
H	4.926714	3.059924	-0.017251
