17

C	1.922128	-1.076047	0.879813
C	2.863517	-0.284083	-0.005179
C	3.400527	0.969771	0.642369
O	2.981521	1.357977	1.714276
C	4.489982	1.716488	-0.093301
C	4.645346	3.158569	0.376995
O	5.023654	3.244864	1.716342
H	1.536946	-1.96193	0.355498
H	1.070147	-0.457163	1.194241
H	2.431667	-1.41011	1.795145
H	2.368711	0.031118	-0.942778
H	3.727827	-0.886742	-0.337447
H	4.313882	1.658384	-1.18101
H	5.431383	1.167197	0.09524
H	3.698768	3.702976	0.174001
H	5.426433	3.652331	-0.223499
H	4.32117	2.795881	2.209273
