13

O	0.984141	-0.036468	0.239149
C	2.172403	0.001567	0.027926
C	2.950544	1.241712	0.011002
C	4.266011	1.358557	-0.216966
C	4.648987	2.799244	-0.143693
O	3.4588	3.492042	0.141776
C	2.36641	2.602514	0.251283
H	2.760838	-0.930415	-0.172177
H	4.961562	0.542627	-0.42572
H	5.410742	2.980018	0.642947
H	5.09353	3.152561	-1.097129
H	1.58247	2.846626	-0.490472
H	1.897251	2.674214	1.250716
