19

C	0.980548	0.094192	0.594269
C	2.26162	-0.194096	-0.166133
N	3.331021	0.800066	-0.01387
C	4.019234	-0.018106	0.991617
C	5.527297	-0.043485	0.912876
C	3.203364	-1.241743	0.496303
N	3.938251	-2.138055	-0.356341
H	0.275364	-0.749786	0.518828
H	0.474722	0.987921	0.193742
H	1.183646	0.271508	1.663344
H	2.026205	-0.420214	-1.22449
H	3.04302	1.733675	0.271946
H	3.719663	0.226004	2.031678
H	5.870819	-0.319269	-0.093764
H	5.945834	-0.765798	1.629808
H	5.93905	0.951102	1.147272
H	2.73248	-1.829238	1.30118
H	4.296083	-1.636528	-1.167877
H	3.325448	-2.867259	-0.714998
