14

C	2.64896	0.154017	-1.489125
O	3.761861	0.798119	-0.938774
C	3.557294	1.757203	-0.012863
C	2.35191	2.159269	0.437755
C	4.80611	2.346233	0.478672
C	6.025833	1.98511	0.066575
H	3.02975	-0.580867	-2.210264
H	1.985239	0.86386	-2.015692
H	2.058474	-0.372254	-0.717305
H	1.410058	1.738001	0.088312
H	2.303474	2.946881	1.189914
H	4.685567	3.130313	1.232326
H	6.154759	1.202989	-0.685418
H	6.921463	2.461557	0.470718
