17

C	0.97288	0.01134	-0.064232
C	2.468794	0.09822	0.044487
O	2.942923	0.305067	1.339933
C	3.362476	-0.708576	-0.883621
N	2.878057	-1.555914	-1.921677
C	3.278652	0.802318	-1.005775
N	4.314116	1.689586	-0.602433
H	0.656821	-0.14441	-1.105102
H	0.506618	0.935851	0.308249
H	0.586044	-0.830431	0.535582
H	2.947841	-0.544447	1.794247
H	4.286824	-1.047445	-0.391112
H	2.520253	-1.032801	-2.714981
H	2.152153	-2.19564	-1.609871
H	2.693659	1.144769	-1.873788
H	5.189936	1.473306	-1.07193
H	4.464802	1.59134	0.399797
