16

C	0.944021	-0.143489	-0.17148
C	2.418099	0.060014	-0.112979
C	3.093449	1.213359	0.08081
C	2.472336	2.56193	0.283232
C	4.552439	1.15451	0.095483
N	5.24932	2.210804	0.275643
O	6.591659	1.95641	0.256547
H	0.618072	-0.862299	0.599845
H	0.648096	-0.579089	-1.141418
H	0.372281	0.783286	-0.031998
H	3.020638	-0.847654	-0.246765
H	1.3757	2.528107	0.268333
H	2.815378	3.261516	-0.495094
H	2.799946	2.991351	1.242734
H	5.051511	0.183729	-0.052259
H	6.984084	2.823507	0.401067
