14

C	1.032893	-0.039025	0.593113
C	2.431179	-0.009436	-0.027989
N	2.44126	-0.53665	-1.38159
C	2.754755	-1.830491	-1.639252
O	3.052164	-2.650142	-0.801178
C	3.016508	1.333098	-0.002899
C	3.477636	2.452403	0.016459
H	1.061677	0.33264	1.627272
H	0.658394	-1.072726	0.599104
H	0.337399	0.590398	0.018267
H	3.080283	-0.689182	0.550592
H	2.185349	0.076794	-2.145316
H	2.710258	-2.064264	-2.73076
H	3.893735	3.442864	0.040056
