19

C	1.190631	0.669011	-0.742082
C	2.427653	1.337875	-0.175266
N	3.612926	0.555435	-0.429404
C	4.859423	1.102412	-0.419498
N	5.079312	2.348684	-0.300362
C	6.437432	2.811137	-0.359263
C	6.816861	3.574039	0.90139
H	0.295565	1.276459	-0.542399
H	1.020627	-0.3213	-0.287789
H	1.279736	0.531242	-1.830481
H	2.301245	1.52847	0.908554
H	2.591339	2.325576	-0.631672
H	3.547285	-0.448271	-0.328398
H	5.669796	0.354536	-0.551342
H	6.54543	3.487606	-1.227507
H	7.16095	1.981249	-0.523498
H	6.114016	4.403096	1.071713
H	7.834614	3.987307	0.827264
H	6.774278	2.914844	1.78254
