17

C	1.497921	0.005926	1.039871
C	2.635506	0.725496	0.30896
C	2.231034	1.234145	-1.071367
C	3.404812	1.440864	-2.022335
O	4.46605	2.161369	-1.464942
C	3.151832	1.827306	1.204793
O	3.21148	2.996544	0.92108
H	1.79467	-0.31143	2.051652
H	1.191731	-0.892616	0.484919
H	0.617886	0.661241	1.135551
H	3.480199	0.014251	0.213566
H	1.676362	2.180614	-0.94519
H	1.52848	0.5232	-1.537375
H	3.028249	1.906578	-2.956491
H	3.815274	0.457406	-2.311985
H	4.095396	2.917913	-0.9915
H	3.464239	1.480984	2.224594
