16

C	2.711148	-0.815097	-0.704069
O	2.488434	0.076204	0.349121
C	2.985621	1.375571	0.129276
C	2.383355	2.268091	1.196767
C	4.486848	1.38939	0.184254
N	5.156137	1.779813	-0.823535
O	6.504629	1.746439	-0.610662
H	2.277839	-1.783062	-0.415629
H	3.786383	-0.96166	-0.918985
H	2.224679	-0.476563	-1.64019
H	2.691822	1.738231	-0.876985
H	2.684838	1.919165	2.196358
H	1.286079	2.227678	1.137457
H	2.713824	3.308972	1.070006
H	4.985578	1.051314	1.107567
H	6.870546	2.062054	-1.443599
