11

C	0.945296	0.013338	-0.005468
C	2.439689	0.046845	-0.001077
N	3.071474	1.201038	0.002389
S	4.708452	0.951898	0.005866
C	4.598322	-0.754429	0.00298
C	3.277436	-1.113906	-0.000768
H	0.548839	1.036052	0.002082
H	0.560328	-0.522908	0.876157
H	0.565553	-0.507135	-0.898813
H	5.476324	-1.401351	0.004206
H	2.913788	-2.142062	-0.003194
