20

C	0.932571	-0.092054	0.048357
C	2.440183	-0.017303	0.241319
C	3.0365	1.390316	0.139144
C	2.498536	2.315488	1.226563
C	4.56902	1.366496	0.176161
C	5.239129	0.662425	-0.994619
H	0.580352	-1.134677	0.061943
H	0.634258	0.344491	-0.919186
H	0.383496	0.446776	0.835361
H	2.921672	-0.66593	-0.5086
H	2.713595	-0.443185	1.224886
H	2.735788	1.80791	-0.84247
H	2.761513	1.933065	2.227742
H	1.403735	2.41607	1.184763
H	2.924924	3.326444	1.136671
H	4.892407	0.902587	1.126532
H	4.929936	2.408818	0.217395
H	4.993608	-0.409941	-1.03421
H	6.335563	0.742736	-0.931267
H	4.929412	1.106748	-1.954706
