16

C	1.230478	-0.12592	-0.592329
O	2.543608	-0.116927	-0.109219
C	3.159108	1.089931	-0.100757
C	4.491225	1.226813	-0.035086
C	5.406968	0.043055	-0.013984
C	5.116347	2.585135	0.042404
H	0.840628	-1.145693	-0.470659
H	1.18078	0.145396	-1.663199
H	0.579074	0.566847	-0.026777
H	2.494016	1.965066	-0.117588
H	4.851444	-0.897521	-0.121523
H	5.977431	0.000932	0.930568
H	6.151426	0.107062	-0.826787
H	4.368333	3.391456	0.006745
H	5.826928	2.744148	-0.787851
H	5.695637	2.70537	0.975171
