16

C	0.978296	-0.048413	-0.109432
N	2.415746	0.007622	-0.040364
C	2.931341	1.353716	0.073095
C	4.389143	1.396004	0.091343
C	5.604141	1.439641	0.094333
C	7.02712	1.454459	0.110674
C	7.78735	2.5159	-0.19792
H	0.649649	-1.090047	-0.238933
H	0.5269	0.557052	-0.92742
H	0.541867	0.314293	0.83677
H	2.836228	-0.452039	-0.844214
H	2.553769	1.79412	1.015783
H	2.570379	2.038462	-0.731558
H	7.511673	0.51562	0.406952
H	7.343565	3.469122	-0.496083
H	8.877444	2.453037	-0.155444
