17

C	0.912359	-0.026433	0.019185
C	2.431567	-0.008232	0.019672
C	2.999979	1.413711	-0.002333
C	4.455027	1.465429	-0.003132
C	5.671223	1.489655	-0.0035
C	7.094418	1.48969	-0.004164
C	7.86439	2.587953	0.004173
H	0.522519	-1.054858	0.034384
H	0.505032	0.470182	-0.87647
H	0.504145	0.496841	0.89908
H	2.820401	-0.560589	-0.852037
H	2.819625	-0.533007	0.908611
H	2.6188	1.978051	0.868627
H	2.618817	1.950445	-0.89061
H	7.574091	0.502524	-0.012325
H	7.428694	3.590347	0.012475
H	8.954103	2.505912	0.002934
