14

C	1.013343	-0.613044	0.023644
C	2.309397	0.170725	0.053831
C	2.144723	1.609098	-0.353859
O	1.085549	2.105884	-0.634129
C	3.406297	2.48669	-0.451169
C	4.607871	1.968811	0.18231
N	5.555488	1.538304	0.688489
H	1.176989	-1.652258	0.341328
H	0.582258	-0.621588	-0.987935
H	0.265971	-0.158215	0.689224
H	3.083584	-0.275974	-0.597104
H	2.773464	0.167433	1.057229
H	3.153923	3.475444	-0.03917
H	3.602795	2.64059	-1.525982
