22

C	0.698119	1.062692	-1.162327
C	2.034121	1.01363	-0.43941
C	2.846733	2.289525	-0.594419
N	4.084992	2.226819	0.144049
C	4.907072	3.409235	0.048034
C	6.186239	3.272109	0.857967
C	7.055974	4.517934	0.820145
H	0.135488	0.124933	-1.036449
H	0.831564	1.227397	-2.24395
H	0.067059	1.88164	-0.780083
H	2.628302	0.161379	-0.817525
H	1.888137	0.826729	0.637385
H	2.257626	3.141778	-0.207883
H	2.99558	2.500383	-1.680458
H	4.620238	1.412235	-0.152515
H	4.325026	4.266192	0.434874
H	5.164961	3.677723	-1.004217
H	6.76098	2.407716	0.477199
H	5.91203	3.019626	1.895622
H	7.356113	4.768261	-0.209917
H	7.974754	4.388516	1.410972
H	6.520923	5.391077	1.227176
