16

C	3.422838	-1.720291	0.457528
C	2.6577	-0.474772	0.106781
O	1.627488	-0.490984	-0.522226
C	3.211319	0.84997	0.61553
N	4.617316	0.809684	0.923359
C	5.540499	1.191823	-0.119903
C	5.309566	2.06572	1.057948
H	4.410677	-1.697296	-0.027681
H	2.85987	-2.60226	0.128353
H	3.622747	-1.757462	1.539
H	2.654199	1.07337	1.543966
H	2.924285	1.630526	-0.120308
H	5.124294	1.528392	-1.07899
H	6.455344	0.595097	-0.202146
H	6.05087	2.128064	1.862343
H	4.741588	2.989919	0.886734
