12

N	0.977918	-0.004	0.055636
C	2.134967	-0.005186	0.027155
C	3.599938	-0.001107	-0.011446
C	4.240178	-1.253276	0.623265
N	4.509757	-0.782144	1.976073
N	4.664796	0.561757	1.98436
C	4.176804	1.062915	0.914893
H	3.904389	0.134692	-1.060974
H	5.17241	-1.498231	0.079034
H	3.581667	-2.132331	0.615641
H	5.208325	-1.267876	2.526507
H	4.11802	2.140245	0.754987
