15

C	0.993364	0.154979	0.136356
C	2.456033	-0.125218	-0.067278
O	3.302173	0.888904	0.548627
C	3.969534	-0.038532	1.280877
O	4.894868	0.128801	2.006185
C	3.135358	-1.211649	0.783554
C	3.879526	-2.345605	0.112223
H	0.386453	-0.653704	-0.2986
H	0.707231	1.099014	-0.349905
H	0.758544	0.234794	1.208433
H	2.709957	-0.198919	-1.138404
H	2.476817	-1.585067	1.5857
H	4.527707	-1.975057	-0.696915
H	3.18184	-3.081692	-0.315047
H	4.518524	-2.865068	0.841594
