17

C	0.923085	-0.019599	0.011839
C	2.443542	0.072608	-0.001384
N	3.089476	-0.684489	-1.067647
C	2.913259	1.521333	-0.096019
N	4.349195	1.581674	-0.115333
C	5.064115	2.504645	0.564357
O	4.597248	3.407573	1.224031
H	0.488979	0.538655	0.85601
H	0.593935	-1.066853	0.093803
H	0.498417	0.395407	-0.917974
H	2.834016	-0.32975	0.950674
H	2.653194	-0.465494	-1.964033
H	2.967041	-1.685068	-0.927038
H	2.556028	2.118696	0.755842
H	2.484102	1.981041	-1.009563
H	4.808788	0.825829	-0.614795
H	6.16555	2.345851	0.452631
