17

C	1.643113	0.174401	2.540271
O	1.866412	0.269305	1.155233
C	2.64832	1.336905	0.726476
C	2.12447	2.703564	1.1057
O	3.963886	1.253851	1.231406
C	4.678828	0.169305	0.851432
C	5.946677	-0.014709	1.218604
H	1.226898	-0.824351	2.729809
H	0.917501	0.926233	2.899309
H	2.579489	0.281285	3.113543
H	2.669647	1.224853	-0.373291
H	2.195993	2.862647	2.191026
H	1.076196	2.8033	0.791891
H	2.723503	3.479898	0.611646
H	4.134273	-0.559049	0.237526
H	6.462934	0.714377	1.847357
H	6.48239	-0.904896	0.888811
