16

O	1.255519	0.117333	0.653153
C	2.581509	0.052604	0.195018
C	2.884648	-1.293624	-0.484186
C	2.406555	-1.057106	-1.908728
C	3.324788	-0.40107	-2.863378
N	2.33989	0.393878	-2.155706
C	2.834204	1.053448	-0.937598
H	0.678203	0.064992	-0.118406
H	3.219615	0.237264	1.073462
H	2.345104	-2.106559	0.020274
H	3.961515	-1.52365	-0.445916
H	1.565821	-1.649703	-2.288617
H	4.377491	-0.30783	-2.561097
H	3.171844	-0.497417	-3.944568
H	3.906963	1.304586	-1.014433
H	2.282512	1.988083	-0.757044
