20

C	3.341569	-0.583439	-1.04962
N	2.78779	0.24081	4.4e-05
C	3.06018	1.682014	-0.060522
C	2.443894	2.263198	-1.329826
C	2.379718	2.30729	1.159591
C	4.55211	1.944004	0.036825
C	5.353285	2.489667	-0.879136
H	3.188217	-1.642235	-0.791386
H	4.424274	-0.430445	-1.24215
H	2.811243	-0.413207	-1.999615
H	3.08188	-0.110753	0.908388
H	2.915862	1.86711	-2.240727
H	2.549973	3.357911	-1.346694
H	1.374182	2.009255	-1.363875
H	2.799886	1.902327	2.095376
H	1.303472	2.078441	1.143528
H	2.519897	3.398666	1.174325
H	4.996743	1.597791	0.981094
H	4.975952	2.853661	-1.838738
H	6.426143	2.601662	-0.698559
