13

C	0.948128	-0.143387	0.171761
C	2.430889	0.065688	-0.136572
C	2.888075	-0.677465	-1.306955
C	3.277506	-1.259945	-2.296586
C	2.757727	1.572114	-0.227695
O	3.683211	1.920756	-1.119157
O	2.237223	2.371358	0.493917
H	0.673147	0.475788	1.03579
H	0.743357	-1.198629	0.396774
H	0.327449	0.15906	-0.683958
H	3.022134	-0.282883	0.731691
H	3.619272	-1.781516	-3.172361
H	3.937751	1.142409	-1.64132
