20

C	1.016449	-0.017688	0.241921
C	2.47877	-0.042206	-0.174677
C	3.060683	1.328817	-0.523288
C	2.347687	1.968424	-1.718481
O	2.928491	2.156306	0.607764
C	4.567905	1.192768	-0.812573
N	5.181879	2.510919	-0.805611
H	0.692831	-1.005676	0.602842
H	0.350938	0.260165	-0.589567
H	0.868998	0.711071	1.052411
H	2.627674	-0.721349	-1.032235
H	3.081839	-0.444483	0.657003
H	2.387482	1.328825	-2.614767
H	2.804483	2.940912	-1.959947
H	1.295521	2.16557	-1.470917
H	3.647623	2.804333	0.496226
H	4.728284	0.6167	-1.745414
H	5.009848	0.608141	0.010282
H	5.121077	2.963011	-1.714264
H	6.164861	2.469552	-0.555608
