18

C	0.786029	-0.116624	0.303928
C	2.270306	-0.013972	0.040532
C	3.07541	1.108521	0.722014
C	4.131705	0.031317	1.027587
N	3.104932	-0.995049	0.751637
C	5.323518	-0.044413	0.118178
C	5.757264	0.883479	-0.735696
H	0.376009	-1.050571	-0.112333
H	0.243	0.724141	-0.156758
H	0.591732	-0.116273	1.387456
H	2.455729	-0.003313	-1.052968
H	2.584137	1.471678	1.635677
H	3.375364	1.967575	0.107932
H	4.491105	0.000544	2.074283
H	3.420397	-1.793936	0.203815
H	5.880645	-0.989151	0.193899
H	5.257576	1.850269	-0.844646
H	6.643902	0.716328	-1.353227
