14

C	0.926816	-0.011473	0.07377
C	2.434611	-0.002609	-0.019622
O	2.761149	0.024949	-1.377719
C	3.166586	1.014376	0.884793
O	3.84794	-0.019657	1.587181
C	3.189994	-1.039426	0.842275
H	0.591745	-0.05149	1.119331
H	0.523587	-0.882708	-0.464194
H	0.520213	0.897977	-0.394159
H	3.720688	0.049557	-1.462442
H	2.519154	1.623703	1.54147
H	3.846657	1.698354	0.342261
H	3.890447	-1.671649	0.263952
H	2.566503	-1.702235	1.469353
