13

C	1.018642	-0.042619	-0.069748
C	2.508023	0.033606	0.053805
C	3.187768	1.263071	0.078822
C	4.563276	1.232796	0.193167
C	5.162617	-0.027794	0.275031
N	4.470425	-1.159126	0.246959
N	3.159574	-1.128657	0.137616
H	0.706761	-1.093845	-0.03903
H	0.677006	0.402969	-1.017449
H	0.522475	0.504324	0.74711
H	2.636962	2.204917	0.009475
H	5.162584	2.145939	0.219893
H	6.247428	-0.141312	0.369
