19

C	2.666553	-0.930496	-0.653786
C	2.285077	0.290181	0.159865
N	3.311004	1.307263	0.08481
C	3.249187	2.240627	-1.015436
C	2.943539	2.665447	0.377479
C	3.895349	3.491561	1.200452
N	3.598295	4.900758	1.0436
H	1.902	-1.717882	-0.569468
H	3.628514	-1.337343	-0.308446
H	2.773862	-0.673578	-1.719814
H	2.163336	0.015629	1.221224
H	1.297482	0.676758	-0.179341
H	2.403184	2.164928	-1.712875
H	4.205856	2.505771	-1.481595
H	1.882064	2.870438	0.585497
H	4.928735	3.185601	0.932038
H	3.760511	3.220942	2.262451
H	3.795111	5.196738	0.089028
H	4.188381	5.465507	1.649035
