10

O	1.020021	-0.129769	-0.246117
C	2.19694	-0.002161	-0.078801
O	2.971414	-1.151452	0.029002
N	4.309557	-1.173513	0.219769
C	4.921016	-0.042596	0.308519
C	4.266888	1.234322	0.217032
C	2.931681	1.252999	0.027239
H	6.000306	-0.126095	0.46363
H	4.853726	2.152206	0.302016
H	2.343432	2.168437	-0.055108
