12

O	1.482216	-0.115524	0.945054
C	2.576133	0.030423	0.465607
N	3.064765	1.245808	0.051759
C	2.475067	2.582427	0.064816
C	3.784097	3.105446	-0.570429
C	4.273685	1.657909	-0.521488
O	5.254469	1.048366	-0.822279
H	3.312696	-0.788731	0.302169
H	2.25426	2.946291	1.07848
H	1.573106	2.661984	-0.558855
H	3.697264	3.509043	-1.589174
H	4.377022	3.795598	0.046359
