14

C	2.118837	-0.336323	-1.547022
O	2.23102	0.204553	-0.263664
C	3.242228	1.169318	-0.124333
C	3.395205	1.557264	1.338496
O	2.798418	2.851638	1.466696
N	2.569959	3.372737	0.236618
C	2.845006	2.519864	-0.671802
H	1.34671	-1.117298	-1.511061
H	3.069074	-0.796198	-1.885118
H	1.816217	0.413795	-2.302085
H	4.186574	0.793202	-0.565
H	4.452694	1.632311	1.637884
H	2.868078	0.84694	1.990111
H	2.70358	2.789116	-1.719828
