14

C	3.507873	-1.106157	-0.282553
O	2.576751	-0.081069	-0.061177
C	3.032118	1.172641	0.037269
C	4.306185	1.605915	-0.05581
C	4.650931	3.008324	0.075589
C	5.892164	3.511402	-0.006556
H	2.943633	-2.045831	-0.330688
H	4.245139	-1.167061	0.538418
H	4.051193	-0.960621	-1.233336
H	2.207262	1.870594	0.2154
H	5.124338	0.902267	-0.234631
H	3.816327	3.69781	0.257517
H	6.75823	2.867052	-0.186664
H	6.082157	4.581133	0.104943
