14

C	1.034701	0.188356	0.164675
C	2.499488	0.032987	-0.219682
C	3.277688	1.29355	0.023368
O	3.621295	1.590079	1.361246
C	4.676902	1.269196	0.484444
C	5.593617	2.336058	0.134524
N	6.330023	3.178377	-0.161545
H	0.47666	-0.74317	-0.010568
H	0.548131	0.985192	-0.419409
H	0.939197	0.446259	1.230318
H	2.595218	-0.23284	-1.2862
H	2.960346	-0.78502	0.357487
H	2.964636	2.173711	-0.558031
H	5.163707	0.298984	0.653961
