16

N	2.122308	-0.392975	-1.364063
C	2.37547	0.088181	-0.020787
C	3.346737	1.254355	-0.039757
C	2.752873	2.543383	-0.637137
N	2.462454	2.999273	0.725962
C	3.415261	2.039946	1.283822
H	1.377643	-1.085908	-1.366701
H	2.948793	-0.856335	-1.738262
H	2.763765	-0.681657	0.682687
H	1.424295	0.446985	0.407952
H	4.315979	0.936225	-0.456974
H	1.877061	2.409914	-1.294603
H	3.512048	3.143175	-1.17738
H	2.62471	3.981498	0.930273
H	4.429572	2.442552	1.476414
H	3.07643	1.515927	2.196534
