22

C	2.643179	-1.530567	-0.214314
C	3.955668	-0.776569	-0.381262
C	4.233967	-0.492626	-1.852182
N	3.871143	0.459577	0.378714
C	5.043722	1.316253	0.454493
C	4.675002	2.562514	1.247299
C	6.29115	0.642999	1.030722
H	2.446373	-1.757722	0.846181
H	2.660933	-2.484543	-0.761346
H	1.805933	-0.921909	-0.590144
H	4.769286	-1.442721	-0.012647
H	3.475217	0.199119	-2.252189
H	4.206029	-1.424019	-2.43695
H	5.224188	-0.037961	-2.006576
H	3.547006	0.254233	1.322583
H	5.277812	1.638186	-0.575686
H	4.443725	2.303296	2.295126
H	3.784898	3.040328	0.813487
H	5.501195	3.289607	1.262261
H	6.104137	0.304826	2.063968
H	7.14492	1.338562	1.053977
H	6.594388	-0.234922	0.439933
