16

C	0.974843	0.013871	0.190237
C	2.390101	0.319755	-0.288511
C	2.728621	-0.25358	-1.641996
C	1.908763	-0.923226	-2.453395
C	2.63623	1.801329	-0.313991
N	3.565418	2.308657	0.389289
O	3.655542	3.666542	0.24369
H	0.81238	0.422823	1.197857
H	0.797417	-1.07139	0.227544
H	0.220684	0.457464	-0.478934
H	3.115876	-0.090446	0.435946
H	3.760774	-0.069962	-1.964975
H	0.869079	-1.135661	-2.189551
H	2.255763	-1.293236	-3.421458
H	2.006019	2.437574	-0.95751
H	4.387402	3.903566	0.822548
