16

N	1.070361	-0.236824	0.095556
C	2.460734	0.164989	-0.071857
C	2.77637	1.415199	0.723397
C	3.805805	1.241056	1.558585
C	4.307469	-0.160341	1.51735
C	3.30906	-1.20567	1.951088
C	3.438684	-0.860605	0.499586
H	0.889184	-1.0839	-0.440033
H	0.45184	0.476538	-0.28687
H	2.731944	0.345002	-1.137498
H	2.187194	2.331544	0.6273
H	4.211357	2.004138	2.227974
H	5.377035	-0.370475	1.61124
H	3.698694	-2.177259	2.26721
H	2.407895	-0.86852	2.471219
H	3.866362	-1.604969	-0.177678
