15

C	0.68446	-0.165373	0.316091
C	2.028938	0.136309	-0.252531
C	2.578145	1.341681	-0.422967
C	2.024582	2.682448	-0.083815
O	3.891113	1.365671	-0.914552
C	4.133486	1.934073	-2.100896
O	3.323912	2.418994	-2.834075
H	0.063934	-0.705834	-0.418317
H	0.134596	0.736847	0.616349
H	0.769091	-0.820118	1.199474
H	2.641135	-0.716128	-0.56584
H	1.062294	2.599054	0.435215
H	1.882674	3.278036	-0.998071
H	2.727842	3.225606	0.56815
H	5.224657	1.878846	-2.300865
