15

C	1.005913	-0.246788	1.707838
C	1.728958	-0.196719	0.58992
C	2.60188	0.945789	0.191928
O	3.85945	0.445168	-0.192136
C	4.745477	1.418633	-0.660574
C	4.341385	2.04417	-1.925941
C	4.005003	2.560308	-2.968694
H	0.353651	-1.095587	1.929182
H	1.034929	0.562729	2.445443
H	1.694758	-1.022752	-0.130553
H	2.702699	1.673041	1.024237
H	2.134816	1.487704	-0.65733
H	5.715944	0.917134	-0.803028
H	4.902321	2.21742	0.09458
H	3.708814	3.013822	-3.896823
