12

C	0.441105	1.441928	0.281525
C	1.037946	0.314422	-0.462597
C	0.96481	-1.076765	0.155791
N	-0.458728	-1.327228	0.359873
C	-1.087087	-0.336445	-0.124227
N	-0.348512	0.718806	-0.724286
H	0.699512	2.47196	0.017343
H	0.180584	1.282763	1.335278
H	1.762503	0.516838	-1.257481
H	1.50855	-1.176166	1.110053
H	1.380111	-1.838104	-0.525893
H	-2.180593	-0.257588	-0.1127
