15

C	0.877111	-0.382693	0.01199
C	2.333819	0.045465	-0.002148
O	3.148498	-0.870272	-0.701242
C	2.581057	1.434453	-0.517715
C	1.670661	2.371037	-0.821259
C	2.077861	3.688208	-1.332272
O	1.31135	4.573826	-1.618053
H	0.269457	0.258028	0.66709
H	0.806688	-1.417523	0.374114
H	0.44478	-0.33978	-1.001113
H	2.71665	0.023311	1.035619
H	2.847606	-0.885169	-1.617328
H	3.645548	1.66385	-0.665007
H	0.594081	2.211429	-0.703939
H	3.187862	3.819571	-1.444387
