16

C	1.499626	-0.443621	-0.572078
C	2.900229	-0.234813	0.000146
C	3.208765	1.202922	0.246735
C	4.215489	1.896868	-0.294728
C	4.399558	3.3382	0.039241
N	5.470449	3.927251	-0.561819
O	3.658771	3.947809	0.787788
H	1.282143	-1.513788	-0.707272
H	1.393986	0.051478	-1.549119
H	0.73018	-0.025722	0.095813
H	3.656972	-0.676562	-0.668974
H	2.976558	-0.776913	0.960267
H	2.54724	1.759517	0.924656
H	4.917777	1.414236	-0.985179
H	6.098513	3.423512	-1.169361
H	5.653343	4.900886	-0.360756
