19

C	0.767562	-0.009597	-0.1524
C	2.245553	0.015509	0.134057
C	3.246071	-0.845487	-0.593726
C	2.813537	-1.503372	-1.894395
C	2.757782	-0.38038	-2.954437
C	2.830645	0.971147	-2.208434
C	3.255741	0.65278	-0.78379
H	0.292674	0.938747	0.147293
H	0.272718	-0.819155	0.407245
H	0.539082	-0.165642	-1.216515
H	2.470683	0.150513	1.198515
H	4.022387	-1.335616	0.001384
H	3.530933	-2.287234	-2.180958
H	1.839791	-2.010897	-1.785471
H	3.624267	-0.47185	-3.628708
H	1.863605	-0.45558	-3.593287
H	3.558526	1.647996	-2.681287
H	1.864371	1.502479	-2.231042
H	4.038972	1.265689	-0.327717
