13

C	3.04274	-0.924967	0.725503
O	2.643381	-0.021477	-0.293533
N	3.239187	1.178489	-0.152843
C	2.583626	2.325381	0.129709
C	3.557561	3.309869	0.117694
C	4.750093	2.617943	-0.178795
N	4.532752	1.316118	-0.34671
H	2.517108	-1.862249	0.505545
H	2.744404	-0.554218	1.721219
H	4.130638	-1.088836	0.696906
H	1.510217	2.334028	0.300736
H	3.421359	4.373246	0.299088
H	5.759365	3.014933	-0.280271
