16

C	1.267614	-0.776246	0.052405
C	2.248002	0.076626	-0.247642
C	3.186026	0.700912	0.738554
C	4.634775	0.373546	0.451224
C	5.404944	1.174561	-0.559598
C	5.728662	1.295224	0.901402
H	0.62198	-1.203459	-0.719482
H	1.071979	-1.078526	1.086882
H	2.415868	0.347658	-1.298539
H	2.923156	0.382942	1.761708
H	3.066579	1.800284	0.711702
H	4.862121	-0.698142	0.484646
H	4.894072	2.015417	-1.039306
H	6.113484	0.655041	-1.210268
H	6.661798	0.85858	1.267261
H	5.437019	2.21637	1.415441
