15

C	0.9713	0.022184	-0.077358
C	2.480445	-0.031625	0.056244
C	3.073405	1.06248	0.946422
O	4.327886	0.565683	1.388208
C	4.369634	-0.784777	1.306196
O	5.314083	-1.42207	1.659878
C	3.056336	-1.273197	0.725161
H	0.599709	-0.78505	-0.726037
H	0.641477	0.977411	-0.515337
H	0.482882	-0.083213	0.905018
H	2.939268	0.063217	-0.943807
H	2.428303	1.253171	1.823982
H	3.239177	2.017019	0.426544
H	3.220804	-2.139398	0.071036
H	2.423391	-1.608075	1.566957
