16

C	0.985258	-0.036236	0.075639
C	2.500407	0.008926	0.033172
C	3.122091	1.182267	0.808648
C	4.478489	0.654326	1.26244
C	4.27797	-0.853416	1.354982
O	5.002643	-1.660716	1.88774
N	3.118424	-1.126743	0.686387
H	0.591828	-0.903982	-0.47698
H	0.559658	0.868914	-0.384025
H	0.629922	-0.100947	1.115758
H	2.822639	0.059449	-1.027618
H	2.491664	1.398922	1.686733
H	3.17381	2.098173	0.202797
H	5.268566	0.832443	0.512756
H	4.841198	1.056082	2.217877
H	2.856301	-2.086551	0.497553
