14

N	-0.079329	0.025976	-1.339042
C	0.02432	-1.069073	-0.354917
C	1.274313	-0.646689	0.456304
C	1.240232	0.688242	0.485365
C	-0.030543	1.081179	-0.308233
C	-1.233117	0.622701	0.5331
C	-1.199089	-0.709486	0.504115
H	0.790187	0.060149	-1.875746
H	0.035617	-2.078716	-0.786115
H	1.965954	-1.322157	0.961227
H	1.897385	1.375411	1.019712
H	-0.07118	2.107943	-0.695013
H	-1.917281	1.283243	1.065293
H	-1.84809	-1.426364	1.006409
