11

C	1.750699	0.428536	-0.798573
C	2.49994	0.041594	0.542637
C	3.059081	1.450383	0.526781
N	3.757373	2.454697	0.956336
O	3.513417	3.422427	0.015887
N	2.670583	3.015508	-0.98628
C	2.397369	1.791934	-0.656341
H	0.65278	0.423857	-0.735285
H	2.063861	-0.14401	-1.683585
H	3.248237	-0.757335	0.440286
H	1.840381	-0.187552	1.392015
