21

C	0.905813	0.285568	1.391556
C	2.344289	0.100836	0.9372
C	2.966106	1.352403	0.308817
N	3.076824	2.500748	1.193534
C	4.348259	1.058104	-0.271731
N	4.313333	0.032622	-1.286598
C	5.608765	-0.35813	-1.78189
H	0.500638	-0.634854	1.838698
H	0.251462	0.558213	0.547087
H	0.816739	1.081132	2.149876
H	2.418889	-0.720959	0.207394
H	2.975289	-0.198772	1.79568
H	2.318015	1.66647	-0.534476
H	3.578667	2.234482	2.040992
H	2.157325	2.812668	1.496276
H	5.005992	0.707709	0.547094
H	4.782425	2.020838	-0.619786
H	3.720775	0.335022	-2.056747
H	6.191978	-0.829592	-0.97303
H	6.224997	0.479231	-2.179116
H	5.498569	-1.106549	-2.581889
