20

C	0.831719	-0.456379	3.4e-05
C	2.283207	-0.047309	-0.219933
C	2.977786	-0.89001	-1.293505
O	4.255401	-0.396754	-1.539088
N	2.506509	1.365649	-0.537587
C	1.731915	1.883354	-1.642842
C	2.481309	2.243866	0.606633
H	0.351329	0.157346	0.777372
H	0.775976	-1.506791	0.323969
H	0.238835	-0.362108	-0.922748
H	2.843623	-0.220673	0.715293
H	2.352632	-0.90777	-2.214206
H	3.042855	-1.935766	-0.946288
H	4.163819	0.553616	-1.33994
H	1.805332	1.215495	-2.513688
H	2.130976	2.86362	-1.946304
H	0.655946	2.021182	-1.405442
H	3.149007	1.860918	1.393403
H	1.468825	2.371505	1.047998
H	2.840378	3.244818	0.31946
