14

C	1.497864	-0.566091	-1.114587
C	2.168465	-0.080883	-0.069378
C	2.978283	1.177789	-0.087276
N	4.327466	0.924671	0.35566
N	5.015364	1.947969	0.852216
C	6.287456	1.89433	0.928309
H	0.909656	-1.484568	-1.041942
H	1.506568	-0.055443	-2.083691
H	2.155977	-0.615896	0.888361
H	2.557126	1.910023	0.621478
H	2.93619	1.644515	-1.092486
H	4.842358	0.214198	-0.169818
H	6.813622	2.737477	1.383626
H	6.879536	1.034221	0.566108
