15

C	1.16068	-0.096574	0.775661
C	2.457577	0.00103	-0.024915
N	2.244717	-0.393345	-1.410861
N	1.876881	-1.654914	-1.610569
C	1.99756	-2.189949	-2.761244
C	3.012003	1.356244	-0.005263
C	3.474426	2.474874	0.012865
H	1.342168	0.142538	1.832978
H	0.768968	-1.119886	0.697259
H	0.414116	0.601287	0.370638
H	3.208726	-0.665598	0.448969
H	2.878435	0.034646	-2.089018
H	1.648057	-3.217061	-2.892925
H	2.427453	-1.661146	-3.630633
H	3.881934	3.468933	0.033917
