20

C	2.828307	-1.030807	-0.422068
C	2.340078	0.232863	0.274833
C	3.370925	1.334368	0.260993
C	3.516313	2.258344	-0.925535
C	3.068497	2.814213	0.392054
C	1.647417	3.293969	0.553228
N	3.993262	3.67634	1.083059
H	2.066018	-1.825588	-0.406744
H	3.734396	-1.427248	0.063264
H	3.083034	-0.826234	-1.474215
H	2.062296	-0.000522	1.31793
H	1.415778	0.582345	-0.212752
H	4.320807	1.046402	0.731204
H	2.770652	2.175832	-1.723593
H	4.519	2.511895	-1.28358
H	0.931668	2.684855	-0.014813
H	1.569369	4.335811	0.208096
H	1.343845	3.267016	1.613471
H	4.954391	3.416552	0.872568
H	3.879448	3.565234	2.09074
