12

O	0.854632	-0.041693	0.202906
S	2.27536	-0.003594	-0.108302
O	2.751462	0.045347	-1.485503
C	3.235735	1.152983	0.922498
C	4.184686	-0.003968	1.295295
C	3.283963	-1.176052	0.85651
H	2.604685	1.506295	1.74977
H	3.651428	1.997433	0.357275
H	5.107114	0.031864	0.700834
H	4.457566	-0.028481	2.35901
H	3.733432	-1.969452	0.244977
H	2.668535	-1.600691	1.66167
