15

C	1.294593	-0.031178	1.204164
C	1.905316	0.516894	-0.053014
O	1.455623	0.331377	-1.158154
C	3.176826	1.3325	0.125486
C	3.306687	2.596563	-0.727136
C	3.346055	3.311183	0.629578
O	3.218355	2.07702	1.343028
H	2.027998	-0.654746	1.741022
H	0.399097	-0.616813	0.963524
H	1.051879	0.802339	1.880726
H	4.025708	0.621904	0.047019
H	2.434028	2.793503	-1.364548
H	4.22061	2.667905	-1.330487
H	4.292108	3.827775	0.868122
H	2.508196	3.999775	0.838472
