16

N	1.320371	-0.367161	-0.507292
C	1.742268	0.463857	0.480649
O	1.315348	0.397362	1.617072
C	2.786736	1.488073	0.088773
C	2.485924	2.950934	0.492736
C	3.949312	3.099242	0.945506
C	4.035127	1.564325	0.998437
H	1.671038	-0.305013	-1.450902
H	0.621006	-1.063728	-0.284382
H	3.066307	1.413215	-0.97491
H	1.794229	2.956074	1.348815
H	2.103817	3.626684	-0.287549
H	4.583987	3.518215	0.148721
H	4.144864	3.656405	1.873943
H	4.953741	1.073819	0.642999
H	3.779715	1.178798	1.996823
