15

C	0.966774	0.05882	0.255657
C	2.402628	-0.084009	-0.18894
O	3.28265	0.923671	0.328613
C	4.133728	-0.005186	1.014533
C	5.571795	0.014895	0.554582
C	3.251257	-1.143823	0.509165
O	3.232997	-2.331258	0.613107
H	0.374143	-0.794933	-0.106306
H	0.533621	0.984091	-0.151971
H	0.898142	0.098166	1.352965
H	2.467655	-0.15087	-1.293237
H	4.070871	0.122736	2.113438
H	5.638065	-0.13861	-0.532778
H	6.139472	-0.780716	1.059756
H	6.034222	0.983476	0.796476
