12

O	2.225133	-0.665507	1.395292
C	2.662993	-0.18757	0.153039
C	3.163348	1.205249	0.325523
C	4.207415	1.747353	-0.316326
C	4.578506	3.153643	-0.110333
O	5.493756	3.707284	-0.667016
H	1.798669	-1.516963	1.262247
H	1.833271	-0.149315	-0.587751
H	3.457041	-0.819078	-0.293708
H	2.581778	1.817604	1.028074
H	4.827188	1.174423	-1.015262
H	3.931683	3.698598	0.628819
