20

C	0.984628	-0.018578	-0.217369
C	2.492943	-0.008353	-0.060851
N	3.010094	1.339447	-0.033846
C	4.444781	1.433579	0.118481
C	4.898005	2.85809	0.0754
C	5.622454	3.460619	1.022715
C	6.08507	4.879337	0.988773
H	0.596543	-1.045947	-0.279533
H	0.687881	0.525607	-1.126646
H	0.49229	0.468974	0.640552
H	2.95647	-0.534056	-0.915362
H	2.777782	-0.600983	0.840528
H	2.554283	1.876278	0.702039
H	4.905503	0.882413	-0.72415
H	4.829819	0.944309	1.043092
H	4.578516	3.424818	-0.808957
H	5.914453	2.873555	1.904826
H	5.744699	5.397527	0.079757
H	7.186085	4.941308	1.025562
H	5.712531	5.441336	1.862079
