15

C	1.098223	0.035555	0.253311
C	2.29552	-0.063758	-0.33036
O	2.63692	-1.118452	-1.123717
C	4.04897	-1.235868	-1.212464
C	4.60443	0.122981	-0.854129
C	4.020205	1.281764	-1.589495
C	3.441062	0.876391	-0.257078
H	0.842558	0.929634	0.821372
H	0.361027	-0.761748	0.149435
H	4.408469	-2.001635	-0.500856
H	4.298344	-1.564243	-2.233909
H	5.608158	0.186915	-0.428149
H	4.599118	2.208137	-1.61237
H	3.424323	1.088925	-2.487473
H	3.536784	1.535492	0.607623
