20

C	1.130869	-0.044673	0.256823
C	2.624535	0.015167	-0.045683
C	2.956972	-0.818194	-1.27921
C	3.093093	1.458289	-0.214153
C	3.107418	2.308406	1.076412
N	4.544848	2.070435	1.188873
C	4.624482	1.667605	-0.213686
H	0.868884	0.526856	1.160276
H	0.796763	-1.082066	0.413302
H	0.545911	0.369544	-0.582003
H	3.174325	-0.403452	0.818019
H	2.424914	-0.432507	-2.165288
H	2.65548	-1.868573	-1.143615
H	4.033901	-0.808423	-1.506056
H	2.563054	1.916742	-1.065628
H	2.507378	1.940164	1.927991
H	2.819187	3.360988	0.88452
H	5.12328	2.853586	1.479941
H	4.934077	2.467025	-0.915906
H	5.254929	0.781201	-0.406971
