14

C	0.024574	0.425385	-0.010737
C	1.452463	0.061475	-0.24082
C	2.451044	0.9436	-0.239912
O	3.744737	0.523713	-0.407464
C	4.695002	1.412727	-0.720477
N	4.443642	2.625714	-0.996232
O	5.592388	3.334435	-1.260148
H	-0.382645	-0.088349	0.876221
H	-0.607601	0.126723	-0.863975
H	-0.101562	1.50816	0.139879
H	1.702066	-0.99064	-0.418237
H	2.324897	2.020384	-0.09401
H	5.702537	0.978316	-0.716323
H	5.259318	4.205117	-1.497474
