15

C	3.259783	-1.420684	-0.141585
C	2.640497	-0.055475	-0.202205
N	1.409671	0.232958	-0.438945
N	3.448761	1.029526	0.011588
O	2.80918	2.23236	-0.063757
C	4.79781	1.066267	0.283929
C	5.508132	2.186017	0.473602
H	4.052881	-1.535578	-0.895996
H	2.490584	-2.179129	-0.332711
H	3.700084	-1.618759	0.847349
H	0.830942	-0.586348	-0.595355
H	1.889037	1.914791	-0.267716
H	5.258829	0.07896	0.335755
H	5.03889	3.168446	0.421025
H	6.57391	2.11485	0.689711
