12

C	0.963006	-0.110504	0.03015
N	2.347687	0.004203	-0.334234
N	2.878557	1.206883	-0.391194
C	4.15999	1.339952	-0.422082
C	4.770978	2.617225	-0.535697
C	5.351426	3.680262	-0.631093
H	0.583647	-1.095318	-0.279689
H	0.392067	0.664049	-0.499527
H	0.784078	0.010519	1.115536
H	2.958621	-0.785593	-0.116942
H	4.831073	0.4622	-0.368399
H	5.85032	4.627673	-0.71566
