13

C	0.971492	0.000983	0.103349
C	2.449319	0.024085	-0.04762
C	3.282811	-1.007008	-0.220507
O	4.607777	-0.655304	-0.32897
C	4.705296	0.708026	-0.225242
O	5.747188	1.280387	-0.28555
C	3.30123	1.255747	-0.033512
H	0.579468	-1.025163	0.061127
H	0.478643	0.58647	-0.690848
H	0.660644	0.444064	1.064431
H	3.082957	-2.07575	-0.290655
H	3.071608	1.971192	-0.841899
H	3.254689	1.825041	0.910807
