16

C	0.937606	-0.023117	0.03379
C	2.458908	-0.046292	-0.028159
C	2.969473	-0.799675	-1.249781
C	3.000036	1.394583	0.018594
O	2.53895	2.128937	1.117314
C	4.477294	1.411369	-0.03873
N	5.634582	1.413326	-0.049681
H	0.581208	0.556367	0.89633
H	0.53598	-1.044363	0.107966
H	0.51852	0.438062	-0.875821
H	2.843312	-0.552543	0.878736
H	2.632608	-0.311717	-2.179542
H	2.579087	-1.827514	-1.256877
H	4.068198	-0.855707	-1.273203
H	2.637911	1.930966	-0.876579
H	2.851845	1.698437	1.922333
