13

N	1.107811	-0.093816	-0.075111
N	2.468773	-0.057889	0.134979
C	3.292934	-1.187457	0.140704
C	4.569394	-0.845534	0.36988
C	4.633047	0.644239	0.536143
C	3.190492	1.097648	0.364681
O	2.710679	2.20699	0.407954
H	0.889072	0.497091	-0.878711
H	0.646295	0.342784	0.724213
H	2.838588	-2.162369	-0.03123
H	5.41508	-1.527757	0.42638
H	5.000361	0.969746	1.524389
H	5.265953	1.153345	-0.210571
