15

O	0.616009	0.142987	0.898238
C	1.863957	-0.349017	0.483623
C	2.76021	0.841765	0.23048
C	4.145711	0.449315	-0.224793
O	4.456977	-0.715346	-0.367553
C	5.144268	1.515331	-0.501602
C	4.932009	2.829452	-0.380605
H	0.039128	-0.606025	1.072459
H	1.794743	-0.953338	-0.441535
H	2.336177	-1.000859	1.244515
H	2.830995	1.451295	1.147791
H	2.296112	1.499739	-0.524751
H	6.114202	1.126148	-0.827752
H	3.969807	3.235859	-0.056012
H	5.720664	3.552985	-0.604053
