12

O	1.437636	0.313105	-1.049002
C	1.96098	0.371189	0.034668
C	3.215876	1.143044	0.267709
N	3.945945	1.597174	-0.88581
C	3.163723	2.58331	-0.181889
C	3.932177	3.589295	0.605952
O	3.481336	4.64436	0.958089
H	1.53532	-0.154457	0.923118
H	3.801125	0.880464	1.157532
H	3.440783	1.296256	-1.724177
H	2.212117	2.934582	-0.598895
H	4.977412	3.265047	0.849994
