14

C	0.983139	-0.026296	0.049809
C	2.480768	-0.002738	-0.026193
C	3.211389	1.185357	-0.091514
C	4.602048	1.13528	-0.157206
C	5.221646	-0.112535	-0.155868
N	4.545172	-1.257831	-0.094965
C	3.220869	-1.195104	-0.032534
H	0.561022	0.987585	0.015263
H	0.639081	-0.502133	0.98208
H	0.549731	-0.601216	-0.783827
H	2.691325	2.148167	-0.091343
H	5.197142	2.049817	-0.209615
H	6.314315	-0.190269	-0.207393
H	2.691294	-2.156174	0.016537
