13

C	1.123921	-0.369288	-0.175954
C	2.452161	-0.454717	-0.271203
C	3.360997	0.715947	-0.160759
N	3.091402	1.925096	-0.458113
N	4.624638	0.3844	0.323542
C	5.684571	1.255473	0.452832
O	6.7492	0.924162	0.909799
H	0.489776	-1.253371	-0.273338
H	0.624006	0.586044	0.013357
H	2.92526	-1.431683	-0.425429
H	2.152281	1.99378	-0.848646
H	4.798379	-0.561362	0.646174
H	5.437146	2.273908	0.087498
