11

C	1.071243	0.004221	0.004912
C	2.540561	-0.096955	0.002949
N	3.223964	-1.181564	-0.002213
C	4.571983	-0.750839	-0.001529
O	5.553269	-1.433338	-0.005258
C	4.503948	0.781108	0.004993
N	3.291364	1.159407	0.007651
H	0.605484	-0.986932	-0.001115
H	0.747243	0.590229	-0.870719
H	0.74913	0.577933	0.889406
H	5.367362	1.45369	0.007112
