19

C	2.422662	-0.240147	-0.705608
O	3.481322	0.593376	-0.339707
C	3.200447	1.95581	-0.009795
C	2.497004	2.672968	-1.157133
C	2.410209	2.053486	1.288567
C	4.60987	2.528386	0.182177
O	5.404309	2.322285	-0.945884
H	2.838387	-1.249545	-0.835737
H	1.949432	0.057497	-1.659287
H	1.634328	-0.29671	0.068399
H	3.118247	2.622775	-2.062574
H	2.34577	3.732029	-0.901788
H	1.508356	2.240688	-1.370845
H	2.896574	1.460351	2.077263
H	1.378369	1.690998	1.168373
H	2.351713	3.100336	1.622947
H	5.047571	2.057574	1.086244
H	4.547774	3.61292	0.366512
H	5.271064	1.390712	-1.171334
