19

C	1.096605	0.042884	-0.176851
C	2.591298	0.025492	0.048159
N	3.046074	1.09908	0.914968
C	4.374831	0.706403	1.394236
C	4.525673	-0.813733	1.157105
C	3.139093	-1.266728	0.691118
N	3.170185	-2.470721	-0.104839
H	0.793723	-0.781668	-0.840758
H	0.771744	0.987981	-0.636501
H	0.555007	-0.07657	0.777478
H	3.098665	0.133764	-0.934939
H	2.406185	1.169575	1.703492
H	5.153499	1.261743	0.844287
H	4.491295	0.980533	2.453902
H	5.254013	-1.016236	0.353205
H	4.870505	-1.368965	2.041379
H	2.51148	-1.468904	1.581677
H	3.675594	-2.303429	-0.974761
H	2.228502	-2.757179	-0.363767
