17

N	1.056117	0.023541	0.201422
C	2.4863	-0.135118	0.000226
C	2.832191	-1.557519	-0.487636
C	2.702727	-1.502215	-2.017108
C	3.131796	-0.083666	-2.360492
N	2.059728	0.907838	-2.240216
C	3.009975	0.745139	-1.140117
H	0.710094	0.861587	-0.256131
H	0.812488	0.051721	1.185565
H	3.063641	0.101398	0.913946
H	2.185763	-2.311686	-0.015021
H	3.878549	-1.785073	-0.220832
H	3.315682	-2.262277	-2.52363
H	1.656471	-1.641209	-2.329396
H	3.918546	0.094675	-3.101491
H	2.30718	1.741325	-2.773103
H	3.694073	1.568689	-0.910205
