17

C	1.39399	-0.251621	-0.728735
N	2.763817	-0.192984	-0.295422
N	3.341028	1.015864	-0.351854
C	4.353345	1.276245	0.379221
C	5.054171	2.569271	0.28897
C	5.67189	3.178128	1.523169
C	6.553634	2.625281	0.450461
H	1.083688	-1.304345	-0.803772
H	1.313793	0.201168	-1.727214
H	0.686797	0.276505	-0.058441
H	2.974061	-0.748114	0.537036
H	4.75246	0.5336	1.101834
H	4.602379	3.251974	-0.436629
H	5.585944	2.6199	2.46038
H	5.606343	4.262984	1.643177
H	7.108082	3.32126	-0.185063
H	7.076258	1.683832	0.644741
