17

C	1.021323	-0.211327	0.225527
C	2.407442	-0.253976	-0.409867
C	2.431691	-1.159669	-1.635686
C	2.898268	1.146112	-0.766666
C	3.196101	2.023048	0.433931
O	3.443073	3.315164	0.148077
O	3.245952	1.635338	1.565415
H	1.019183	0.41104	1.131642
H	0.690562	-1.221555	0.510648
H	0.276863	0.193796	-0.481376
H	3.111233	-0.651199	0.341582
H	1.755807	-0.781884	-2.42136
H	2.102226	-2.178117	-1.379395
H	3.441688	-1.23345	-2.069498
H	2.164314	1.657537	-1.418207
H	3.833036	1.087865	-1.354905
H	3.35886	3.468647	-0.800341
