16

C	3.253088	-0.418464	1.352223
C	2.820611	0.17931	0.015956
C	2.855096	1.679197	0.000189
C	1.770126	2.44875	-0.156067
C	4.237595	2.272431	0.087116
N	4.328704	3.509339	0.645994
O	5.207405	1.671028	-0.333891
H	3.223982	-1.518246	1.316251
H	2.594346	-0.087783	2.170356
H	4.28371	-0.120558	1.596854
H	1.809168	-0.164292	-0.250188
H	3.509953	-0.16936	-0.770898
H	0.775436	2.007259	-0.266794
H	1.836478	3.538521	-0.223982
H	3.564696	3.910046	1.169039
H	5.251815	3.912462	0.739514
