16

C	1.337151	-0.151216	0.957987
C	2.493774	0.001794	-0.029762
C	2.114883	-0.439343	-1.450929
C	3.286411	-0.442308	-2.410108
O	4.255114	-1.328423	-1.909482
C	2.998728	1.377474	-0.03541
N	3.396475	2.464892	-0.051301
H	1.633545	0.147124	1.973679
H	1.010702	-1.201148	0.988444
H	0.478192	0.467012	0.656748
H	3.338187	-0.633337	0.288787
H	1.314061	0.206814	-1.846083
H	1.708088	-1.461703	-1.385639
H	3.683974	0.587785	-2.507111
H	2.929931	-0.747904	-3.413995
H	5.074605	-1.200503	-2.395243
