12

C	1.036202	0.058232	0.14917
C	2.51729	-0.072676	-0.105865
O	3.316751	0.937369	0.528119
C	4.106488	0.008828	1.264549
C	3.280962	-1.133675	0.686614
O	3.22422	-2.316715	0.813796
H	0.503857	-0.801568	-0.284448
H	0.649323	0.978668	-0.312002
H	0.828384	0.096436	1.228536
H	2.728886	-0.132347	-1.192386
H	5.173445	0.00026	0.971772
H	4.037691	0.137068	2.360756
