18

C	2.874588	-0.895506	-1.070559
C	2.451173	-0.019135	0.096081
C	2.970885	1.424054	0.018316
C	2.445478	2.300666	1.164969
C	2.86955	3.756969	1.079577
C	4.43594	1.446262	-0.02572
N	5.593468	1.453974	-0.05446
H	2.458442	-1.908822	-0.974629
H	3.970362	-0.987005	-1.127164
H	2.523904	-0.480766	-2.029119
H	2.788868	-0.461163	1.048848
H	1.351159	0.034047	0.152231
H	2.632701	1.86468	-0.938796
H	2.777467	1.861703	2.121273
H	1.345446	2.224245	1.155036
H	3.965308	3.859189	1.119047
H	2.448581	4.339493	1.912138
H	2.524571	4.219617	0.140952
