15

N	1.038328	-0.083931	0.210413
C	2.391997	0.129234	-0.280459
C	2.552807	-0.612347	-1.581323
C	3.515896	-1.496393	-1.840372
C	2.591667	1.603778	-0.512631
C	3.587542	2.328717	-0.003803
H	0.903941	0.39886	1.096589
H	0.874541	-1.074845	0.377096
H	3.188558	-0.218608	0.412164
H	1.794596	-0.377776	-2.338792
H	4.276203	-1.746198	-1.092543
H	3.587212	-1.99827	-2.808868
H	1.83301	2.072985	-1.151656
H	4.350339	1.87849	0.640601
H	3.685623	3.396173	-0.218536
