19

C	2.935004	0.004214	1.703814
N	3.095171	0.485545	0.351544
C	3.590468	1.841761	0.243224
C	5.102561	1.91085	0.44481
N	5.857325	1.059882	-0.462909
C	5.662227	3.32216	0.31121
O	7.047546	3.306427	0.452872
H	2.495687	-1.00439	1.693165
H	2.29728	0.651161	2.345534
H	3.913321	-0.080735	2.203503
H	2.221033	0.392978	-0.155461
H	3.093165	2.542075	0.952659
H	3.364298	2.210522	-0.772971
H	5.344794	1.573554	1.469319
H	5.589085	1.277226	-1.424901
H	5.576104	0.090936	-0.320053
H	5.226902	3.983926	1.079293
H	5.349142	3.734834	-0.676542
H	7.307886	2.453864	0.062961
