19

C	0.828125	0.045835	-0.003999
C	2.331401	-0.174027	-0.011142
C	3.118501	1.133981	0.04696
N	4.550507	0.95862	0.052763
C	5.196705	0.775195	1.324283
C	5.234973	0.768753	-1.121052
N	4.816889	0.770214	-2.324827
H	0.280904	-0.906947	-0.04832
H	0.506885	0.652793	-0.866282
H	0.502441	0.573248	0.907667
H	2.634204	-0.726072	-0.917097
H	2.625785	-0.807443	0.843671
H	2.836968	1.703234	0.94984
H	2.841254	1.775325	-0.808937
H	5.044169	1.649415	1.981784
H	6.278557	0.648775	1.175437
H	4.826535	-0.11847	1.860592
H	6.313583	0.607713	-0.951318
H	3.805845	0.916958	-2.382512
