15

N	1.446919	0.345275	0.6283
C	2.536328	0.013408	0.083137
C	2.872243	-1.405178	-0.345024
C	4.257058	-1.331952	-1.00592
C	4.639624	0.139164	-0.921613
C	3.802765	1.122572	-1.6335
N	3.623778	0.895091	-0.195494
H	1.46486	1.346835	0.84295
H	2.077179	-1.791385	-0.999268
H	2.873441	-2.047279	0.548672
H	4.993748	-1.941715	-0.463671
H	4.252172	-1.687781	-2.047649
H	5.677589	0.396058	-0.685034
H	4.197433	2.106617	-1.905482
H	3.024931	0.7409	-2.307615
