17

C	2.791252	-1.158755	1.054783
C	2.38507	-0.134547	0.03294
C	1.407436	-0.36859	-0.85607
C	3.118435	1.157411	0.017414
C	2.480402	2.335333	-0.058612
C	4.627004	1.117992	0.120697
O	5.077713	0.78917	1.412731
H	3.865397	-1.389719	0.992449
H	2.218465	-2.088813	0.934301
H	2.627995	-0.777425	2.076233
H	0.854944	-1.312674	-0.85337
H	1.145109	0.368571	-1.61925
H	1.388504	2.393891	-0.072643
H	3.035955	3.277272	-0.110863
H	5.035417	2.088759	-0.221688
H	5.030917	0.343837	-0.551843
H	4.664275	1.406467	2.026368
