16

C	1.420137	-0.510945	0.170257
C	2.775977	-0.057989	-0.307069
O	3.167437	1.060753	0.478517
C	4.343714	1.612307	0.202803
N	5.105247	1.174921	-0.718118
O	6.259891	1.916723	-0.807099
C	7.074182	1.402275	-1.823782
H	1.083953	-1.379785	-0.414105
H	0.67722	0.292718	0.057021
H	1.456349	-0.799383	1.230956
H	2.765603	0.233873	-1.371538
H	3.537485	-0.851623	-0.210192
H	4.587628	2.47232	0.840575
H	7.970845	2.036495	-1.847316
H	6.572891	1.441357	-2.807211
H	7.371469	0.358372	-1.620528
