15

O	0.886577	-0.042731	-0.191969
C	2.091668	-0.009251	-0.065844
C	2.837861	1.272471	0.253062
C	4.247339	1.285395	-0.324736
C	5.039265	0.061664	0.122322
C	4.257416	-1.20296	-0.048056
C	2.918475	-1.232168	-0.160484
H	2.225794	2.11667	-0.095824
H	2.87943	1.344056	1.356345
H	4.77395	2.210393	-0.042376
H	4.183546	1.282593	-1.426596
H	5.325455	0.15431	1.188268
H	5.99229	-0.012543	-0.426145
H	4.816701	-2.145414	-0.074175
H	2.370292	-2.167544	-0.30184
