15

C	1.390224	-0.323569	1.083274
C	2.243285	-0.1289	0.077343
C	3.077819	1.105958	-0.120061
C	4.539765	0.800913	-0.041787
C	5.432458	0.97332	-1.028277
C	6.847613	0.623212	-0.848833
O	7.697054	0.757552	-1.694549
H	0.816019	-1.249494	1.171893
H	1.228938	0.437469	1.854507
H	2.380877	-0.917654	-0.672856
H	2.820424	1.84648	0.657755
H	2.849471	1.564588	-1.097296
H	4.890295	0.378752	0.910579
H	5.149001	1.382099	-2.004302
H	7.096538	0.206325	0.164002
