15

C	0.970025	-0.100933	-0.025855
N	2.403527	0.013288	-0.010983
C	3.129521	-1.232339	-0.018372
C	3.106766	1.191668	0.011127
C	2.309016	2.480113	0.016903
O	4.323763	1.214798	0.025677
H	0.485019	0.880299	-0.008546
H	0.609466	-0.67122	0.849691
H	0.623626	-0.633268	-0.930741
H	2.874774	-1.842349	0.866526
H	4.202579	-1.007917	-0.007259
H	2.889283	-1.822845	-0.920426
H	1.671361	2.57418	-0.875449
H	3.03127	3.303857	0.026737
H	1.663635	2.560768	0.905083
