17

C	0.88752	-0.619286	0.105488
C	2.325631	-0.236895	0.186689
C	2.883817	0.980764	-0.018531
C	2.086974	2.180159	-0.299597
C	2.574171	3.362743	-0.702314
C	4.35021	1.140042	0.067319
C	5.253877	0.293483	-0.437712
H	0.745605	-1.407519	-0.654181
H	0.221384	0.213187	-0.155623
H	0.541277	-1.048698	1.061081
H	3.010744	-1.051326	0.449114
H	1.00457	2.09223	-0.162288
H	3.641097	3.522119	-0.882379
H	1.911159	4.2125	-0.88166
H	4.7034	2.037479	0.590362
H	4.951924	-0.589214	-1.010022
H	6.325812	0.459492	-0.299558
