19

N	1.442198	-0.030257	1.071625
C	1.893778	0.510727	-0.19553
C	3.090443	1.400188	0.010278
C	3.426735	2.479633	-0.975852
C	2.896726	2.839616	0.385853
C	3.789173	3.508707	1.395803
N	3.786994	4.945417	1.203261
H	0.628713	-0.627631	0.941324
H	1.150249	0.728549	1.685598
H	1.124006	1.090459	-0.753686
H	2.175932	-0.33067	-0.852722
H	3.936553	0.892851	0.487948
H	2.768308	2.614676	-1.838781
H	4.484643	2.66759	-1.184378
H	1.862193	3.203775	0.408134
H	4.793973	3.032727	1.339656
H	3.410808	3.293523	2.411115
H	4.159705	5.170338	0.282198
H	4.39176	5.403274	1.881187
