13

O	2.693994	-0.6672	-1.199227
C	2.231182	0.001043	-0.052436
C	2.821441	1.369274	-0.012007
C	2.184041	2.552653	0.222167
O	3.059655	3.577207	0.211736
C	4.278572	3.059619	-0.043918
C	4.203349	1.70869	-0.190438
H	2.403459	-1.582817	-1.147371
H	2.525729	-0.540896	0.870773
H	1.125827	0.085177	-0.031342
H	1.143526	2.807701	0.409845
H	5.099393	3.770891	-0.097776
H	5.017692	1.024907	-0.418126
