14

C	0.017422	0.174338	0.416463
C	1.455037	-0.273253	0.488478
O	2.241758	0.717642	-0.155798
N	3.545125	0.372157	-0.160096
C	4.273217	1.262312	-0.727198
C	5.679059	1.081407	-0.838237
C	6.881743	0.981931	-0.963346
H	-0.63368	-0.561561	0.909948
H	-0.307128	0.280681	-0.629064
H	-0.114587	1.144749	0.917063
H	1.604822	-1.242357	-0.017845
H	1.793713	-0.385369	1.533301
H	3.818442	2.177684	-1.136675
H	7.946439	0.882236	-1.071054
