22

C	1.246113	-0.717731	1.659895
C	2.731219	-0.390035	1.644744
C	3.072868	1.026915	1.175702
C	2.382536	2.13804	1.977607
C	2.677489	2.144931	3.470659
C	4.592323	1.205936	1.120698
N	4.967951	2.519501	0.637099
H	1.073514	-1.773728	1.918242
H	0.78628	-0.537981	0.673906
H	0.697249	-0.108256	2.394133
H	3.25405	-1.107044	0.988186
H	3.155135	-0.553779	2.652072
H	2.70364	1.118441	0.133535
H	1.293006	2.071101	1.818785
H	2.701179	3.100077	1.546981
H	2.34923	1.217509	3.966782
H	2.159556	2.97961	3.966938
H	3.75332	2.268169	3.67045
H	5.012784	0.365652	0.526336
H	5.004574	1.085022	2.138037
H	4.700249	2.629943	-0.339547
H	5.975314	2.650528	0.68005
