16

O	1.161613	-0.005674	0.436157
C	2.532985	0.030478	0.115403
C	2.832171	-1.289435	-0.601386
C	2.558914	-1.008368	-2.070692
N	3.605588	-0.354831	-2.836647
C	2.550717	0.466249	-2.269955
C	2.823	1.126438	-0.926721
H	0.91858	0.84432	0.816653
H	3.147555	0.154133	1.030237
H	2.181243	-2.075387	-0.1931
H	3.876592	-1.609492	-0.444637
H	1.911873	-1.687187	-2.636639
H	4.465643	-0.276017	-2.292172
H	1.897659	0.965852	-2.994028
H	3.867262	1.4806	-0.863781
H	2.182445	2.0063	-0.756011
