13

N	1.127096	-0.056065	0.455816
C	2.335162	-0.035076	0.059432
C	3.134022	1.23551	-0.098472
C	4.491481	0.801854	-0.604129
O	5.426251	1.502266	-0.876514
C	4.48612	-0.721314	-0.71737
N	3.160973	-1.078274	-0.298095
H	0.764524	-1.012432	0.497822
H	3.229541	1.772842	0.858253
H	2.654247	1.932285	-0.803422
H	4.721429	-1.006748	-1.7592
H	5.287386	-1.133243	-0.076341
H	2.836118	-2.035026	-0.2805
