14

C	0.94891	-0.177021	-0.167764
C	2.418298	0.039904	0.177861
C	2.824355	1.47821	0.088998
C	3.320933	2.245062	1.113147
S	3.638694	3.840998	0.562114
C	3.077891	3.372584	-1.00533
N	2.692238	2.140467	-1.104895
H	0.692675	-1.247093	-0.159867
H	0.731483	0.223798	-1.168694
H	0.292038	0.338143	0.549667
H	3.047911	-0.537533	-0.520312
H	2.64125	-0.336882	1.188096
H	3.513565	1.946797	2.142291
H	3.06608	4.090386	-1.829791
