15

O	1.01665	0.014536	0.260509
N	2.324702	0.132387	-0.186187
C	2.992366	1.324719	0.282423
C	4.403855	1.308963	-0.284947
C	5.105493	0.002246	0.08367
N	4.296308	-1.188502	-0.072177
C	3.035376	-1.056188	-0.150847
H	0.47735	0.242974	-0.507376
H	2.427832	2.204385	-0.065339
H	3.005793	1.352384	1.389466
H	4.969236	2.179282	0.083063
H	4.343055	1.400986	-1.38186
H	5.451898	0.03916	1.133043
H	6.021358	-0.115925	-0.519031
H	2.383359	-1.937266	-0.240479
