14

C	2.260646	-0.586941	1.060428
O	3.491708	-0.228454	0.470104
N	3.668014	1.102967	0.495267
C	4.769541	1.478998	-0.030686
C	5.104222	2.92643	-0.075666
C	4.117167	3.898378	0.512631
O	6.150806	3.269897	-0.579307
H	2.204949	-1.681419	0.99734
H	1.413966	-0.140728	0.51496
H	2.220088	-0.27343	2.115929
H	5.49476	0.772925	-0.459062
H	3.140857	3.801012	0.015401
H	4.505229	4.917434	0.394642
H	3.948768	3.674372	1.57655
