14

C	2.724054	0.309686	0.896202
C	2.244873	0.048649	-0.572169
C	2.496014	1.527781	-0.773038
C	2.555651	2.737645	-1.43452
C	3.034179	3.662224	-0.452165
C	3.245644	2.997735	0.751664
N	2.90472	1.703567	0.505609
H	3.656744	-0.197703	1.189144
H	1.962472	0.159471	1.677805
H	1.198882	-0.282612	-0.66074
H	2.886914	-0.635088	-1.148231
H	2.300211	2.961447	-2.467799
H	3.21233	4.724894	-0.613729
H	3.600981	3.359074	1.713635
