20

C	2.275462	-1.201847	-0.704176
C	1.905127	0.143875	-0.092237
C	3.098572	0.991926	0.311699
C	3.936555	0.419543	1.429427
N	3.847162	1.658589	-0.752406
C	2.984817	2.462535	0.108202
C	3.629983	3.510687	0.970659
H	1.378759	-1.743936	-1.040478
H	2.80096	-1.849049	0.014285
H	2.935902	-1.073645	-1.577016
H	1.261328	-0.010433	0.791716
H	1.295418	0.716312	-0.813631
H	4.784071	1.072829	1.670886
H	4.353765	-0.557399	1.141611
H	3.331899	0.277154	2.339467
H	3.409144	1.496122	-1.658795
H	2.023547	2.781054	-0.320781
H	4.606183	3.177581	1.346008
H	2.99077	3.764834	1.830918
H	3.799104	4.431899	0.391151
