19

C	1.023997	-0.464504	0.069926
C	2.507845	-0.315427	-0.223388
C	2.925492	-1.021349	-1.497554
O	2.845527	1.053777	-0.400651
C	3.029427	1.861602	0.666159
C	3.349021	3.245851	0.200989
C	2.949946	1.505337	1.958842
H	0.735064	0.10044	0.967556
H	0.764809	-1.521825	0.229709
H	0.433901	-0.086267	-0.779215
H	3.098969	-0.720488	0.619306
H	2.380824	-0.604212	-2.358304
H	2.706847	-2.097549	-1.434156
H	4.002342	-0.889227	-1.676284
H	4.245291	3.229625	-0.439209
H	3.519216	3.926476	1.044113
H	2.521739	3.634133	-0.414456
H	2.700551	0.4972	2.289539
H	3.143102	2.252966	2.728108
