15

C	1.764975	0.129271	-0.693571
C	1.759241	-0.123317	0.812359
C	0.489823	-0.00538	0.052549
O	-0.327014	1.098659	0.286885
C	-1.63658	0.726252	-0.073814
C	-1.621388	-0.772036	0.187436
O	-0.309752	-1.119528	-0.189979
H	2.037911	1.129566	-1.038514
H	2.056814	-0.694912	-1.349549
H	2.042331	-1.119898	1.159911
H	2.033648	0.704775	1.470966
H	-2.352319	1.284266	0.546626
H	-1.837851	0.942764	-1.140414
H	-2.333894	-1.343302	-0.424423
H	-1.805346	-0.992231	1.256453
