21

C	1.134045	0.569834	0.590895
C	2.535593	1.034211	0.956375
C	3.541177	0.828814	-0.168162
C	4.921063	1.469251	0.059501
C	5.608634	0.915196	1.29979
C	5.799887	1.25197	-1.171757
O	4.777304	2.861616	0.300238
H	0.426011	0.724386	1.419856
H	1.119559	-0.502784	0.336981
H	0.745862	1.117138	-0.283613
H	2.873245	0.501268	1.860516
H	2.528786	2.103787	1.221795
H	3.124736	1.256844	-1.100382
H	3.672295	-0.248826	-0.371567
H	5.028984	1.153631	2.202279
H	6.602514	1.372297	1.41159
H	5.726694	-0.176179	1.231524
H	5.318848	1.667823	-2.072861
H	5.982519	0.182409	-1.356872
H	6.768201	1.756008	-1.038105
H	4.378871	3.254067	-0.484373
