19

C	1.07975	0.100283	-0.152218
C	2.578375	-0.020573	-0.01527
O	3.158901	1.219155	-0.325008
C	4.561985	1.306486	-0.165374
C	5.316487	0.668087	-1.316663
C	4.845403	2.794872	-0.027502
O	4.084162	3.359798	0.994924
H	0.588921	-0.856717	0.078538
H	0.810321	0.391994	-1.178
H	0.687957	0.865921	0.533948
H	2.95752	-0.813425	-0.689739
H	2.853843	-0.323107	1.01597
H	4.842241	0.81742	0.790815
H	5.022789	1.135962	-2.268857
H	5.113318	-0.41029	-1.389118
H	6.402416	0.793669	-1.184608
H	4.652447	3.27827	-1.009452
H	5.911435	2.947553	0.206707
H	3.191938	3.013164	0.856026
