16

C	1.53029	-0.41905	0.821937
C	3.018593	-0.128819	0.806285
N	3.401938	0.901685	-0.130486
O	2.974953	2.173284	0.183813
C	1.967471	2.622265	-0.699665
C	4.540729	0.828023	-0.882819
O	5.166871	-0.183707	-1.089542
H	1.314213	-1.237655	1.524479
H	1.173116	-0.71807	-0.1751
H	0.95511	0.459094	1.151966
H	3.597444	-1.013033	0.502147
H	3.364584	0.163279	1.814654
H	1.688118	3.624636	-0.347805
H	1.08162	1.966702	-0.681007
H	2.340578	2.694171	-1.735607
H	4.801741	1.827773	-1.303827
