17

C	1.00618	-0.044927	-0.10608
N	2.423919	0.078046	-0.312043
C	3.067914	1.234283	0.269141
C	4.499202	1.333846	-0.235057
C	5.239965	0.043133	0.095444
C	4.344131	-1.143086	-0.126121
N	3.076805	-1.099415	-0.309137
H	0.491498	0.848773	-0.491888
H	0.735284	-0.166402	0.963297
H	0.647405	-0.925954	-0.653426
H	2.487505	2.129709	-0.004002
H	3.062796	1.168131	1.380281
H	5.00021	2.210243	0.202357
H	4.474008	1.481957	-1.326672
H	5.593786	0.048363	1.142755
H	6.148522	-0.059829	-0.520813
H	4.789791	-2.144071	-0.170236
