15

C	1.298908	0.136087	0.271509
C	2.771342	0.133152	-0.010385
C	3.485784	-1.140859	0.092113
C	2.928675	-2.30938	0.443474
C	3.392925	1.294028	-0.348596
C	4.813189	1.483825	-0.650329
O	5.284247	2.559775	-0.941379
H	0.871914	1.141034	0.160972
H	1.094615	-0.21504	1.295858
H	0.766445	-0.54426	-0.412411
H	4.553844	-1.132789	-0.137811
H	1.868715	-2.406625	0.691386
H	3.528962	-3.220681	0.497902
H	2.8083	2.217794	-0.413233
H	5.470154	0.580748	-0.601459
