13

O	1.18417	-0.105931	0.122233
C	2.367092	0.01735	0.06151
O	3.259816	-1.012466	0.106108
C	4.523135	-0.31831	-0.003877
C	4.256405	0.679818	-1.140596
C	3.265514	1.235695	-0.075703
C	4.346688	0.850998	0.976531
H	5.346694	-1.041399	0.019737
H	3.847451	0.278702	-2.080074
H	5.096242	1.361471	-1.334694
H	2.766158	2.208767	-0.133141
H	5.196485	1.548311	0.986592
H	4.022111	0.609434	2.000064
