13

C	0.907144	-0.005648	-0.102096
C	2.388953	0.088379	-0.174271
C	3.144406	1.04329	0.379125
C	4.626871	1.010452	0.222721
N	5.283306	2.043745	0.819959
O	5.212652	0.136004	-0.387999
H	0.59931	-0.961813	0.35382
H	0.466327	0.004627	-1.11291
H	0.462139	0.815094	0.479177
H	2.929107	-0.689647	-0.72935
H	2.685705	1.859318	0.950602
H	4.803832	2.782118	1.312105
H	6.290198	2.079981	0.736018
