11

C	1.399525	-0.285332	-0.593779
O	2.767101	-0.163229	-0.276166
N	3.146702	1.132294	-0.297058
C	4.389054	1.267978	-0.010767
C	4.985662	2.558046	0.02006
C	5.548707	3.632025	0.061783
H	1.176574	-1.359484	-0.556157
H	1.188744	0.101268	-1.604059
H	0.770919	0.24908	0.136764
H	5.009599	0.386729	0.214382
H	6.037474	4.588486	0.096427
