14

C	0.914598	0.126543	0.06851
C	2.404759	-0.008597	-0.150189
O	2.608953	-0.5807	-1.418657
C	3.11642	1.319627	-0.079918
C	3.937026	1.705974	1.066591
O	4.529619	1.225182	-0.120908
H	0.695811	0.537163	1.065207
H	0.432333	-0.856883	-0.021416
H	0.476738	0.788911	-0.693823
H	2.83539	-0.655792	0.6434
H	3.562012	-0.595882	-1.568936
H	2.694867	2.10693	-0.723357
H	3.999111	1.037116	1.935823
H	4.100602	2.768806	1.285864
