14

C	0.902516	0.013458	-0.043679
C	2.2359	0.119878	-0.119983
C	2.959674	1.374711	-0.08879
N	4.244687	1.394683	-0.140732
O	4.707212	2.665087	-0.074068
C	3.612193	3.592958	-0.153928
C	2.362748	2.749165	0.068292
H	0.411114	-0.961806	-0.06713
H	0.256881	0.891882	0.046392
H	2.863998	-0.771472	-0.21018
H	3.626507	4.057871	-1.15466
H	3.77446	4.375153	0.600909
H	1.566577	2.948413	-0.664019
H	1.924293	2.859999	1.074504
