15

N	1.048906	0.786938	1.204054
N	2.363917	0.638101	0.979251
C	2.914135	1.253634	0.00812
C	4.389713	1.176612	-0.217554
C	5.043001	2.533106	-0.136095
C	6.145444	2.925026	-1.013998
O	4.834322	3.393787	-1.239166
H	0.655762	0.006198	1.714676
H	0.471912	1.082751	0.413999
H	2.328804	1.886216	-0.687846
H	4.599168	0.752381	-1.215571
H	4.823494	0.50363	0.538487
H	4.960973	3.029314	0.84263
H	6.528941	2.20234	-1.747869
H	6.873258	3.676266	-0.679269
