18

C	1.185157	-0.528738	0.173882
C	2.648851	-0.794409	-0.122154
N	3.423565	0.425076	-0.074356
C	4.840234	0.247211	-0.295815
C	5.545471	1.591562	-0.385502
N	5.26162	2.40337	0.787676
H	0.587777	-1.449034	0.092877
H	0.780354	0.217525	-0.526353
H	1.051717	-0.137063	1.196173
H	2.746482	-1.224607	-1.135057
H	3.033383	-1.576074	0.573406
H	3.302397	0.858552	0.840753
H	4.984626	-0.297102	-1.245733
H	5.324275	-0.365492	0.498195
H	5.255768	2.078077	-1.339931
H	6.631541	1.409982	-0.43705
H	4.362916	2.868003	0.669811
H	5.946737	3.14789	0.886467
