15

O	1.100263	0.079392	0.160625
C	2.487681	-0.017325	-0.048376
C	2.809147	-1.42191	-0.562826
O	2.857376	-1.348611	-1.973522
C	3.236253	-0.058945	-2.335301
C	2.14603	0.956656	-2.404069
C	3.022523	0.865373	-1.175535
H	0.882106	1.009272	0.281993
H	3.040675	0.189786	0.888165
H	2.03133	-2.139471	-0.263771
H	3.7839	-1.76012	-0.160447
H	4.113765	0.002529	-2.989398
H	2.279109	1.82361	-3.05718
H	1.123711	0.580917	-2.309489
H	3.719583	1.673887	-0.94149
