13

C	0.969445	0.015832	-0.102833
C	2.486133	-0.035009	0.024386
C	3.189122	-1.198675	-0.602246
N	4.10192	-0.849601	-1.432664
N	4.121561	0.513605	-1.475854
C	3.181042	1.128835	-0.684556
O	2.962469	2.311575	-0.595547
H	0.605604	0.98684	0.263049
H	0.492041	-0.783051	0.482668
H	0.659013	-0.09137	-1.152767
H	2.764701	0.03106	1.093667
H	2.99989	-2.257377	-0.408799
H	4.753039	0.984935	-2.110873
