13

N	0.971409	0.060156	0.107132
C	2.407396	0.007517	-0.091955
C	2.952649	1.441393	0.033849
O	2.432955	2.025048	1.189962
C	4.416739	1.445071	0.043511
C	5.626602	1.418538	0.024067
H	0.596496	-0.83167	0.415592
H	0.482486	0.317964	-0.747603
H	2.736918	-0.439652	-1.049059
H	2.851793	-0.588104	0.720563
H	2.633212	2.005965	-0.872961
H	1.547869	1.618858	1.253187
H	6.700976	1.407656	0.009725
