17

C	0.961337	-0.006965	-0.019786
C	2.49203	-0.02452	0.027525
C	2.995156	-0.752107	1.280809
C	3.038974	-0.732814	-1.234425
O	4.431098	-0.754985	-1.292667
C	3.013803	1.349046	0.015239
C	3.490599	2.463349	-0.024916
H	0.594739	0.526369	-0.909735
H	0.547932	0.489936	0.869933
H	0.573015	-1.037399	-0.048078
H	2.691726	-0.223059	2.195889
H	4.090816	-0.830565	1.258424
H	2.577648	-1.770418	1.311399
H	2.589322	-0.254965	-2.128639
H	2.697773	-1.781173	-1.216375
H	4.734012	0.162149	-1.271693
H	3.889501	3.460591	-0.050325
