13

C	1.04373	0.081105	-0.020764
C	2.508954	-0.10851	-0.075143
C	3.280668	-1.200768	-0.021343
C	4.702732	-0.763988	-0.125976
C	4.575742	0.744805	-0.244425
O	5.419905	1.576798	-0.351874
O	3.239979	1.055752	-0.206837
H	0.532304	-0.88418	0.078752
H	0.687736	0.584342	-0.933714
H	0.771038	0.723449	0.83164
H	2.921874	-2.222826	0.082262
H	5.327983	-1.006452	0.750697
H	5.242395	-1.152127	-1.007014
