22

C	3.025002	-0.895138	-1.036271
C	2.496801	0.07906	0.004916
C	3.026725	1.523938	-0.081675
C	2.539067	2.210086	-1.359567
C	2.496863	2.304817	1.125205
C	4.565317	1.549482	-0.079998
N	5.139112	0.813733	1.028691
H	2.529383	-1.873081	-0.93913
H	4.104502	-1.064861	-0.905136
H	2.853479	-0.546884	-2.067617
H	2.749034	-0.313191	1.003088
H	1.393796	0.12069	-0.046941
H	2.894181	1.693144	-2.264611
H	2.899413	3.250087	-1.412263
H	1.438257	2.235706	-1.396686
H	2.818507	1.849925	2.075838
H	1.395004	2.318947	1.130328
H	2.845705	3.350239	1.108782
H	4.883775	2.614555	-0.133272
H	4.921979	1.085587	-1.014652
H	4.995239	1.308526	1.906102
H	6.14479	0.717571	0.91538
