17

C	1.069413	-0.057581	0.521145
C	2.502353	0.003055	-0.013131
C	2.624271	-0.60844	-1.426265
C	2.304419	-2.069112	-1.457541
C	1.330972	-2.633788	-2.173628
C	3.014528	1.37288	-7.5e-05
C	3.432156	2.510031	0.00934
H	1.010742	0.350641	1.539954
H	0.708838	-1.096714	0.535983
H	0.394327	0.529163	-0.120826
H	3.148683	-0.589075	0.66197
H	3.658788	-0.453428	-1.778267
H	1.967543	-0.054023	-2.116973
H	2.936748	-2.708858	-0.826582
H	0.673237	-2.03524	-2.812778
H	1.15633	-3.71304	-2.153287
H	3.803033	3.518038	0.018452
