20

C	2.604856	-1.75333	0.056384
N	3.732263	-0.889173	-0.181897
C	3.422945	0.518756	-0.086575
C	4.653366	1.372853	-0.341592
C	4.389143	2.857527	-0.22709
O	3.461359	3.238757	-1.20278
C	3.126586	4.588428	-1.159798
H	2.896842	-2.806151	-0.081054
H	1.723307	-1.555545	-0.593676
H	2.262872	-1.646302	1.099764
H	4.13348	-1.086818	-1.096175
H	3.05051	0.721198	0.935431
H	2.611254	0.841918	-0.774458
H	5.041918	1.168638	-1.355283
H	5.446162	1.085732	0.367643
H	5.336161	3.42506	-0.347704
H	4.004841	3.100005	0.788209
H	2.403441	4.786411	-1.964061
H	4.008538	5.24335	-1.313214
H	2.662216	4.874226	-0.193543
