12

O	1.184232	-0.017206	0.807869
C	2.280085	-0.040463	0.35228
C	3.241702	0.969403	-0.25783
N	4.291568	-0.054105	-0.199193
C	3.360882	-1.143144	0.153258
C	3.036861	-2.099769	-0.893718
C	2.777845	-2.880773	-1.783344
H	3.427292	1.881788	0.334468
H	2.905737	1.26981	-1.269255
H	4.813499	-0.205097	-1.057036
H	3.626237	-1.673829	1.08687
H	2.541299	-3.576245	-2.567879
