16

C	2.328644	-0.51111	-1.465526
C	2.471462	0.025011	-0.049024
C	3.2419	1.329483	0.016714
C	2.540578	2.597249	-0.500225
O	2.641643	3.234437	0.769685
C	3.253373	2.087712	1.352717
H	1.754188	-1.449232	-1.488159
H	3.313325	-0.710274	-1.917767
H	1.808008	0.211515	-2.114908
H	2.976702	-0.723009	0.58705
H	1.472845	0.178655	0.398106
H	4.248989	1.19521	-0.409671
H	1.489179	2.445969	-0.813563
H	3.063066	3.157708	-1.295692
H	4.247795	2.311021	1.778394
H	2.628664	1.632696	2.145168
