21

C	1.115614	-0.193674	-0.091734
N	2.483962	0.069311	0.27861
C	2.903884	1.45742	0.20608
C	2.235082	2.27417	1.305851
C	4.427519	1.502285	0.294942
C	5.057595	2.869488	0.087932
N	6.502833	2.753971	0.014926
H	0.944138	-1.280073	-0.129906
H	0.815779	0.23269	-1.075708
H	0.417314	0.208005	0.659514
H	3.106607	-0.492709	-0.295281
H	2.612876	1.912144	-0.773413
H	2.512618	1.870613	2.292681
H	1.138396	2.242942	1.223079
H	2.533427	3.331378	1.258383
H	4.854898	0.828968	-0.469527
H	4.731291	1.088919	1.274303
H	4.702136	3.565773	0.877183
H	4.694839	3.285907	-0.868823
H	6.868753	2.42175	0.906188
H	6.925508	3.666854	-0.1378
