16

C	0.955607	-0.163291	0.123139
C	2.451388	0.04797	-0.078364
C	2.915929	-0.524306	-1.426547
O	4.297816	-0.448717	-1.601812
C	2.828825	1.498305	-0.009612
C	3.901438	1.987539	0.619683
H	0.624847	0.220995	1.099427
H	0.696285	-1.232367	0.074548
H	0.373144	0.358065	-0.654525
H	3.011645	-0.496476	0.70168
H	2.360623	-0.011817	-2.242778
H	2.640635	-1.590722	-1.478196
H	4.560839	0.460322	-1.407614
H	2.185948	2.184951	-0.578888
H	4.565507	1.337695	1.200231
H	4.145113	3.053433	0.594828
