21

C	0.879705	0.96947	-1.015606
C	2.367761	0.838256	-1.044263
C	3.193267	1.291061	-0.096151
C	4.700806	1.194697	-0.051097
C	5.093489	0.430939	1.222735
C	5.278501	0.476879	-1.269653
C	5.272019	2.618826	0.021126
H	0.509625	1.526852	-1.893048
H	0.532409	1.490939	-0.110745
H	0.390062	-0.018324	-1.047691
H	2.786383	0.327903	-1.919832
H	2.750676	1.800348	0.772634
H	4.688889	0.921646	2.122454
H	6.189607	0.38416	1.329632
H	4.705968	-0.599015	1.198864
H	5.025995	1.002417	-2.204057
H	4.900573	-0.554466	-1.345339
H	6.376448	0.427212	-1.198815
H	5.017321	3.192762	-0.883579
H	6.370108	2.595132	0.116637
H	4.870399	3.164696	0.889925
