23

C	1.613698	0.648093	1.509157
C	2.978123	1.31853	1.447303
C	3.732928	0.987345	0.165212
C	5.128023	1.617526	-0.018426
C	6.078481	1.169099	1.095805
C	5.685694	1.144941	-1.364963
C	5.037372	3.146038	-0.029515
H	1.079836	0.894727	2.440278
H	1.705937	-0.449196	1.458652
H	0.975421	0.962068	0.666807
H	3.573569	1.010851	2.323549
H	2.851416	2.410719	1.536963
H	3.106546	1.281674	-0.697647
H	3.839926	-0.111074	0.093804
H	5.750632	1.526547	2.083902
H	7.093138	1.562937	0.924896
H	6.148625	0.06988	1.140845
H	5.032593	1.455507	-2.196634
H	5.770887	0.04666	-1.396863
H	6.687089	1.565332	-1.550564
H	4.343274	3.496672	-0.810499
H	6.023523	3.594103	-0.231547
H	4.688068	3.544102	0.935392
