19

C	3.137546	-2.026147	-0.472904
C	2.711364	-0.773506	0.23553
C	1.78921	-0.786499	1.205114
C	3.375406	0.506161	-0.201755
C	4.880621	0.551323	0.056009
C	5.509013	1.881182	-0.330427
O	6.901749	1.896073	-0.175896
H	3.027029	-1.916642	-1.565473
H	2.549839	-2.896925	-0.151177
H	4.201452	-2.250347	-0.28808
H	1.304984	-1.715093	1.520641
H	1.485332	0.132935	1.713805
H	2.89313	1.357204	0.306502
H	3.197756	0.64898	-1.284684
H	5.402314	-0.243558	-0.501458
H	5.068839	0.356949	1.128142
H	5.019946	2.701477	0.236289
H	5.312369	2.084882	-1.396123
H	7.100351	1.73597	0.752447
