16

C	1.04132	-0.061661	0.040312
C	2.547996	0.060597	0.035953
C	3.122264	1.191833	0.884509
C	4.516667	0.663122	1.192935
C	4.238913	-0.827193	1.375314
O	3.118762	-1.125668	0.568835
H	0.725989	-0.939421	-0.542161
H	0.573881	0.832067	-0.400762
H	0.671573	-0.183689	1.069971
H	2.896312	0.186957	-1.011474
H	2.53382	1.296512	1.812116
H	3.116091	2.162472	0.367227
H	5.184589	0.828927	0.331417
H	4.984762	1.125684	2.074001
H	5.092281	-1.461059	1.078495
H	4.008471	-1.059241	2.433285
