17

C	1.012568	-0.004003	-0.034009
C	2.516822	-0.043509	-0.012906
C	3.333925	-0.764618	-1.043189
C	2.727497	-1.517944	-2.196638
C	3.322083	0.75272	-1.023035
C	4.483428	1.499075	-0.625615
C	5.468355	2.121732	-0.288204
H	0.637236	0.865416	0.527781
H	0.586084	-0.909453	0.426972
H	0.612973	0.0685	-1.055924
H	2.950547	-0.048801	0.99303
H	4.260486	-1.20421	-0.659244
H	1.833817	-1.015858	-2.594528
H	2.429977	-2.53392	-1.892191
H	3.448794	-1.613363	-3.023235
H	2.730304	1.221621	-1.819521
H	6.340533	2.672094	0.011354
