15

C	1.12147	0.198296	-0.09466
C	2.572796	-0.082961	0.00838
C	3.331902	-1.136092	-0.326853
C	4.721851	-0.647766	0.098493
C	4.750049	0.78002	-0.502591
C	3.649196	0.861034	0.582486
O	4.447406	-0.038247	1.385636
H	0.577567	-0.640015	-0.55283
H	0.934105	1.101052	-0.700929
H	0.683989	0.390443	0.899604
H	3.063612	-2.091033	-0.777086
H	5.578136	-1.335645	0.082033
H	4.478451	0.923266	-1.559145
H	5.65543	1.340245	-0.223499
H	3.343589	1.791083	1.082521
