15

C	0.967622	-0.036536	0.077674
C	2.472766	0.052068	0.012479
C	3.202881	1.10168	0.874317
C	4.197351	-0.032584	1.224086
N	3.201064	-0.993002	0.750433
C	5.43465	0.015568	0.433718
N	6.393485	0.024461	-0.216069
H	0.603184	-0.925559	-0.460459
H	0.501589	0.848558	-0.38345
H	0.633995	-0.112062	1.123505
H	2.800697	0.136891	-1.043503
H	2.618235	1.400565	1.755136
H	3.60912	1.989774	0.374381
H	4.475275	-0.141884	2.287113
H	3.543996	-1.796437	0.228649
