12

N	0.916597	-0.054673	0.624786
C	2.037358	-0.027514	0.335382
C	3.441559	0.006674	-0.037203
C	4.300934	1.045136	0.732814
N	4.773268	-0.02754	1.600051
C	4.332886	-1.054155	0.662975
H	3.515774	0.044239	-1.134163
H	3.75728	1.859647	1.238185
H	5.063779	1.490109	0.06449
H	5.755191	-0.021196	1.86029
H	5.108375	-1.430228	-0.032501
H	3.815059	-1.916818	1.112553
