13

C	1.017641	-0.064645	-0.00495
C	2.486708	0.090476	-0.017838
C	3.354406	1.132513	0.012388
N	4.658996	0.67058	-0.007305
C	4.525703	-0.615356	-0.058708
N	5.503699	-1.561075	-0.159477
O	3.255235	-1.053218	-0.066423
H	0.54395	0.924892	0.037313
H	0.676875	-0.645853	0.867917
H	0.654296	-0.580616	-0.908991
H	3.119479	2.195225	0.054776
H	5.277303	-2.471668	0.219563
H	6.424769	-1.219786	0.082933
