17

C	2.792613	-1.605367	1.063881
C	3.389924	-0.318751	1.546687
C	3.383136	0.055401	2.831045
C	3.923461	0.578138	0.440111
O	2.853027	1.031578	-0.358712
C	4.816788	1.687586	0.922328
C	4.662016	2.970073	0.596877
H	2.07271	-1.401857	0.255494
H	2.284459	-2.154499	1.868867
H	3.572121	-2.259246	0.636656
H	2.943713	-0.582813	3.603058
H	3.811446	1.007826	3.154176
H	4.529617	-0.057611	-0.234187
H	2.241445	1.488309	0.232275
H	5.650884	1.376164	1.561865
H	3.848169	3.283573	-0.063331
H	5.348463	3.738897	0.95959
