18

C	1.160595	-0.691003	-0.072197
C	2.675546	-0.566359	-0.080103
C	3.1625	0.87137	-0.193222
C	4.685205	1.000646	-0.196016
C	5.156684	2.411738	-0.34612
C	5.89496	3.082329	0.539469
H	0.838535	-1.740027	0.010317
H	0.72032	-0.280108	-0.99541
H	0.718519	-0.139808	0.773477
H	3.094172	-1.157152	-0.914558
H	3.091218	-1.017357	0.838851
H	2.751151	1.469563	0.639476
H	2.753639	1.324707	-1.115203
H	5.087999	0.39413	-1.02911
H	5.098868	0.565103	0.729937
H	4.842596	2.92372	-1.266192
H	6.228215	2.616399	1.472938
H	6.197948	4.118239	0.366096
