19

C	0.9806	0.088007	0.244967
C	2.460437	-0.035455	-0.072403
C	2.700909	-0.063354	-1.571741
N	3.314987	0.971464	0.59554
C	4.042688	-0.052243	1.355134
C	3.194074	-1.174429	0.732781
N	3.913687	-2.239323	0.100906
H	0.81033	0.090014	1.334123
H	0.412009	-0.751801	-0.186343
H	0.561676	1.020664	-0.168786
H	3.777125	-0.100085	-1.797224
H	2.304569	0.853725	-2.035206
H	2.211767	-0.929275	-2.047
H	2.800857	1.633655	1.16847
H	5.113083	-0.116691	1.084825
H	3.986865	0.027323	2.455089
H	2.500959	-1.619866	1.466598
H	4.537033	-1.892407	-0.624905
H	3.286715	-2.913181	-0.331926
