11

O	3.07357	-1.237998	0.006294
C	2.366392	-0.272266	-0.069914
C	2.906041	1.160066	-0.080661
O	2.128548	2.073113	-0.158779
C	4.41293	1.277765	0.006917
C	4.915476	2.637685	-0.000907
C	5.338545	3.770515	-0.007115
H	1.250848	-0.319636	-0.141133
H	4.838683	0.685287	-0.82379
H	4.735373	0.73205	0.91264
H	5.709316	4.77895	-0.013142
