12

C	2.041945	0.551224	0.850402
C	2.453326	-0.087105	-0.534667
C	3.102212	1.245264	-0.837946
N	3.772838	2.030404	-1.62925
O	3.864836	3.194134	-0.890494
C	3.252254	3.07188	0.309203
C	2.739283	1.818575	0.391312
H	2.487479	0.063811	1.729934
H	0.957062	0.644304	1.00812
H	1.612403	-0.359014	-1.1895
H	3.144593	-0.93996	-0.465546
H	3.293191	3.961724	0.934871
