19

C	0.834886	0.65469	0.949097
C	1.73879	0.719654	-0.272898
C	3.115575	1.248123	0.043251
C	3.94333	1.931342	-0.992718
C	3.342476	2.742056	0.134287
C	4.20591	3.2987	1.188854
C	4.003948	4.455192	1.825947
H	-0.164663	0.270439	0.694931
H	0.709976	1.651173	1.400949
H	1.258918	-0.005082	1.72284
H	1.279934	1.359488	-1.047024
H	1.831439	-0.281953	-0.728568
H	3.666476	0.653546	0.782562
H	3.514366	2.063068	-1.990403
H	5.026509	1.779216	-0.986066
H	2.481941	3.367197	-0.130795
H	5.079918	2.68878	1.455333
H	3.14699	5.094466	1.591299
H	4.686751	4.803385	2.604661
