15

C	2.48911	-0.555538	-1.529528
C	2.471627	0.018301	-0.121058
C	3.207507	1.341904	-0.012781
C	2.545529	2.61574	-0.5523
O	2.541847	3.194898	0.772727
C	3.099945	2.080552	1.316357
O	3.348193	1.868971	2.457076
H	1.948616	-1.512245	-1.577342
H	3.519334	-0.734918	-1.875526
H	2.012587	0.129465	-2.249201
H	2.932627	-0.687673	0.588941
H	1.431243	0.156244	0.221069
H	4.259646	1.23187	-0.323084
H	1.51855	2.490882	-0.929466
H	3.134468	3.226426	-1.251813
