14

C	1.011013	0.034041	-0.075731
C	2.511188	-0.026918	-0.025403
C	3.329383	-0.741236	-1.041447
N	3.252082	0.699571	-1.026738
C	4.42191	1.429703	-0.612589
H	0.63892	0.96048	0.389874
H	0.561774	-0.817757	0.458751
H	0.661934	0.017058	-1.118133
H	2.941141	-0.025379	0.98936
H	2.848056	-1.246817	-1.887331
H	4.259435	-1.213934	-0.69552
H	4.127381	2.426277	-0.248772
H	5.095049	1.571192	-1.472848
H	4.998664	0.926718	0.194436
