13

C	1.090243	-0.11316	0.163214
C	2.489547	-0.049168	-0.397189
O	2.770685	-0.464202	-1.501247
N	3.433282	0.480677	0.444827
C	4.801265	0.612855	0.027637
C	5.249076	2.007911	-0.023038
N	5.592498	3.112445	-0.039704
H	0.940263	0.504197	1.05951
H	0.85731	-1.160392	0.407806
H	0.390124	0.201811	-0.621718
H	3.157838	0.847905	1.345476
H	4.862378	0.172798	-0.981628
H	5.489672	0.048274	0.679733
