12

O	1.030193	-0.045387	-0.291762
C	2.394932	0.047803	-0.124213
C	3.049158	1.058051	0.868475
C	4.093781	-0.016843	1.261544
C	3.088232	-1.016107	0.710828
O	2.707383	-2.098753	1.0579
H	0.724237	-0.775131	0.263166
H	2.895322	0.147801	-1.106741
H	2.356432	1.271639	1.695329
H	3.419384	1.999176	0.441372
H	5.00766	0.035891	0.649733
H	4.368935	-0.140659	2.31788
