17

C	0.995861	-0.06884	0.095638
C	2.519954	-0.036648	-0.076851
N	3.006782	-0.684453	-1.288303
C	3.010272	1.344129	-0.010747
C	3.366426	2.501334	0.04555
C	3.825086	3.888453	0.082433
N	2.78214	4.820839	-0.313499
H	0.684006	0.39949	1.041474
H	0.635905	-1.110041	0.090348
H	0.506513	0.47246	-0.729384
H	2.969134	-0.577441	0.777154
H	2.643474	-0.194211	-2.104861
H	2.639247	-1.6334	-1.335065
H	4.756476	3.947222	-0.522045
H	4.12912	4.124226	1.117545
H	2.496269	4.630883	-1.27229
H	3.150694	5.769758	-0.304266
