13

O	0.940482	-0.106161	0.415296
C	2.119693	-0.023345	0.159826
C	2.829126	1.253668	-0.229259
C	4.304995	1.222228	0.146152
C	4.899758	-0.099309	-0.232534
N	4.243007	-1.194636	-0.216038
N	2.934015	-1.135116	0.14081
H	2.28664	2.093997	0.222717
H	2.713804	1.347053	-1.324081
H	4.421571	1.348626	1.239999
H	4.857826	2.05135	-0.318821
H	5.956249	-0.180936	-0.509931
H	2.474274	-2.034089	0.239134
