14

N	0.05321	1.075505	0.373992
C	1.270773	0.504759	0.4199
C	2.330524	0.742128	-0.397082
C	3.573777	0.009969	-0.169634
O	3.710428	-0.819366	0.720262
C	4.701625	0.330812	-1.098283
C	5.880532	-0.285923	-0.986283
H	-0.669382	0.812331	1.025766
H	-0.177654	1.76251	-0.330024
H	1.422672	-0.237722	1.212811
H	2.26965	1.46593	-1.215116
H	4.531366	1.088048	-1.871409
H	6.013755	-1.037114	-0.201079
H	6.719103	-0.066268	-1.65161
