14

C	1.886137	-0.596296	-1.207988
C	2.242789	0.025082	-0.073425
C	1.656454	-0.38869	1.174308
N	1.200859	-0.701184	2.193867
C	3.217671	1.148418	0.029774
C	3.556175	2.013214	-1.144178
C	2.729968	2.574432	-0.027234
H	2.333018	-0.310003	-2.162128
H	1.148272	-1.401302	-1.207908
H	4.02287	0.958769	0.748929
H	3.055802	1.820395	-2.096409
H	4.593319	2.341352	-1.246677
H	3.180908	3.297694	0.656866
H	1.664178	2.72966	-0.215617
