15

C	2.384381	-0.398669	1.673665
C	2.700979	-0.481219	0.201284
O	3.816443	0.341934	-0.053237
C	4.279299	0.412408	-1.317718
C	3.772889	-0.222501	-2.393005
C	5.423124	1.274235	-1.422471
C	6.389341	1.999353	-1.517911
H	1.519386	-1.033704	1.91413
H	2.149459	0.636137	1.961805
H	3.242558	-0.735762	2.273155
H	1.841208	-0.145938	-0.410346
H	2.928439	-1.522167	-0.099589
H	2.901547	-0.874506	-2.335449
H	4.245375	-0.079145	-3.363767
H	7.246672	2.641973	-1.599707
