20

C	1.180072	-0.266166	-0.007524
N	2.618774	-0.207689	0.039126
C	3.220577	-1.328413	-0.637304
C	3.127459	1.074452	-0.39545
C	4.57975	1.328931	0.007447
C	5.045521	2.693683	-0.389493
C	5.509214	3.625615	0.44459
H	0.744794	0.548843	0.591455
H	0.825155	-1.218417	0.417259
H	0.764694	-0.186201	-1.039458
H	2.830785	-2.270364	-0.222327
H	4.311358	-1.339294	-0.492957
H	3.022866	-1.335623	-1.735395
H	2.505479	1.858282	0.066694
H	3.021267	1.208711	-1.500176
H	5.233692	0.581142	-0.475041
H	4.676487	1.183588	1.09548
H	4.982516	2.928552	-1.460991
H	5.589297	3.438266	1.520905
H	5.832732	4.60589	0.08469
