19

C	1.659673	-0.548894	-1.040894
N	2.239495	0.106735	0.104001
C	3.174426	1.181939	-0.158903
C	4.371079	0.795022	-1.018133
C	2.442137	2.489065	-0.565718
N	2.554469	2.978322	0.806979
C	3.509131	1.929777	1.154847
H	0.907121	-1.279635	-0.706184
H	2.372246	-1.084645	-1.704416
H	1.128205	0.188686	-1.665319
H	2.663433	-0.570909	0.733395
H	5.065265	1.639434	-1.145079
H	4.058641	0.471125	-2.023275
H	4.92722	-0.035879	-0.5521
H	1.405443	2.365211	-0.92288
H	3.005118	3.067133	-1.323298
H	2.879257	3.933656	0.917333
H	4.56862	2.247214	1.200371
H	3.270749	1.379723	2.082964
