18

C	1.858921	-0.210965	-1.462097
O	2.201087	0.23577	-0.187494
C	3.015024	1.375379	-0.179583
C	2.321753	2.668934	-0.634315
C	3.018142	3.727768	0.204745
N	3.112214	3.067239	1.489466
C	3.466316	1.675769	1.261773
H	1.280811	-1.139149	-1.348804
H	2.754313	-0.429603	-2.079491
H	1.23632	0.518261	-2.01746
H	3.902471	1.193342	-0.822138
H	1.260828	2.603464	-0.344471
H	2.38593	2.852518	-1.717054
H	4.003125	3.982985	-0.250736
H	2.442053	4.66477	0.275238
H	3.718052	3.539192	2.151654
H	4.549411	1.46878	1.370798
H	2.93074	0.998804	1.94742
