13

C	0.954835	-0.037995	0.023751
C	2.435617	0.079767	0.049636
C	3.244269	1.162262	0.000777
C	4.619072	0.682429	0.029963
N	5.768242	1.213088	0.012269
O	4.538974	-0.698551	0.097942
N	3.204202	-1.055899	0.213464
H	0.492504	0.949185	-0.094344
H	0.586287	-0.492071	0.95656
H	0.621089	-0.677389	-0.809882
H	2.942561	2.205531	-0.041417
H	5.676773	2.227036	-0.024862
H	3.023073	-1.848744	-0.400987
