17

C	2.828762	-1.231637	-1.880818
C	2.167706	-0.995989	-0.537209
N	2.42861	0.340844	-0.060746
N	1.658076	0.814113	0.906118
C	2.04252	1.824917	1.602166
C	1.183324	2.387416	2.621633
C	1.504514	3.437493	3.392801
H	2.616648	-2.248093	-2.243562
H	3.924649	-1.129901	-1.813159
H	2.466223	-0.510814	-2.629149
H	2.50321	-1.762412	0.191644
H	1.074479	-1.097095	-0.6159
H	3.407	0.639832	-0.075856
H	3.032778	2.292646	1.437029
H	0.214753	1.888514	2.736403
H	2.467175	3.948397	3.289342
H	0.816803	3.819889	4.150245
