13

C	1.020307	-0.33505	-0.03657
C	2.487158	0.085607	0.029698
C	2.64171	1.581926	0.044883
N	2.619522	2.348066	-0.986399
O	2.45869	1.657597	-2.137509
C	2.779877	2.257472	1.305944
N	2.886556	2.739831	2.354526
H	0.933781	-1.431466	-0.057489
H	0.545224	0.064262	-0.943919
H	0.459102	0.033145	0.835545
H	3.028611	-0.296493	-0.849094
H	2.968674	-0.330287	0.92695
H	2.479727	2.34047	-2.817905
