17

C	0.95861	-0.147216	-0.213135
C	2.431038	0.066641	-0.129637
C	3.096688	1.219321	0.100865
C	2.458998	2.556418	0.326879
C	4.556615	1.185494	0.134378
N	5.24758	2.24294	0.346049
N	6.582522	2.154056	0.42883
H	0.625324	-0.88906	0.533109
H	0.674801	-0.555037	-1.198952
H	0.378525	0.771518	-0.054143
H	3.041795	-0.834044	-0.276556
H	1.362696	2.509445	0.319024
H	2.788624	3.271583	-0.443239
H	2.790288	2.975962	1.289193
H	5.045225	0.204362	-0.028487
H	7.041656	3.034146	0.229304
H	7.025395	1.35462	-0.029229
