19

C	0.984058	-0.029776	0.034026
C	2.509301	-0.002426	0.016653
C	3.071794	-0.640412	1.286474
C	3.016032	-0.774164	-1.216521
O	4.406702	-0.876033	-1.289456
C	2.957368	1.463927	-0.079986
O	4.359181	1.636696	-0.150188
H	0.560383	0.416825	-0.880494
H	0.583659	0.528157	0.895659
H	0.610871	-1.063251	0.105733
H	2.789073	-0.067191	2.185084
H	4.168135	-0.718068	1.233696
H	2.689316	-1.665562	1.408953
H	2.587319	-0.29592	-2.125044
H	2.612244	-1.801066	-1.185411
H	4.749262	0.02108	-1.15709
H	2.532791	2.038346	0.767206
H	2.551149	1.908281	-1.003626
H	4.732183	1.436956	0.715254
