17

O	1.031652	-0.027942	0.089105
C	2.441854	0.025178	0.043488
C	2.917197	-1.306002	-0.524963
C	2.541798	-1.421155	-1.995446
O	3.049428	-0.342962	-2.744042
C	2.548282	0.892935	-2.305564
C	2.929773	1.162525	-0.856168
H	0.706692	0.828105	0.385529
H	2.8568	0.156589	1.063472
H	2.46874	-2.130193	0.051425
H	4.012115	-1.371322	-0.418116
H	2.959407	-2.33761	-2.437873
H	1.4384	-1.468753	-2.087614
H	2.963054	1.66215	-2.973966
H	1.443248	0.918039	-2.40231
H	4.026223	1.244503	-0.774139
H	2.507096	2.126035	-0.520007
