16

C	0.957981	-0.021231	-0.014218
C	2.465496	0.033881	0.068235
C	3.177898	1.060043	0.974833
C	4.262121	0.002828	1.257657
C	3.234363	-1.063363	0.833592
O	3.6284	-2.231022	0.190333
H	0.629066	-0.913691	-0.56999
H	0.542419	0.863829	-0.521765
H	0.511219	-0.069899	0.992139
H	2.902182	0.098876	-0.946977
H	2.578591	1.27706	1.873765
H	3.488898	2.0157	0.528202
H	5.078785	0.063827	0.517991
H	4.703883	-0.060487	2.263193
H	2.642155	-1.380623	1.709677
H	4.145371	-1.981696	-0.583389
