12

N	1.021114	0.060151	0.11315
C	2.364225	-0.047792	0.036815
C	3.166206	-1.132581	-0.068727
C	4.556375	-0.682004	-0.075609
O	5.578454	-1.298143	-0.155245
O	4.555754	0.69688	0.028988
C	3.242943	1.1713	0.107719
H	0.441613	-0.75079	-0.048708
H	0.576378	0.961789	0.020556
H	2.885997	-2.180812	-0.141367
H	3.034998	1.865965	-0.72714
H	3.087604	1.720517	1.054248
