18

C	1.138089	-0.103924	-0.137462
C	2.602537	0.221285	-0.131319
O	3.38962	-0.255168	-1.208371
C	3.262231	1.158843	-1.052389
C	2.523798	1.880456	-2.148284
C	4.556829	1.81088	-0.613361
N	5.490681	1.82474	-1.719875
H	0.602402	0.520523	0.593986
H	0.984795	-1.157225	0.143892
H	0.68633	0.047899	-1.126434
H	3.080857	0.092027	0.853206
H	1.710107	1.268268	-2.55647
H	3.231279	2.115779	-2.956044
H	2.105986	2.828093	-1.774294
H	4.919009	1.274917	0.288265
H	4.345732	2.849251	-0.304395
H	5.708824	0.863517	-1.978684
H	6.367486	2.263181	-1.450766
