13

O	1.082828	0.064779	-0.401013
N	2.377313	-0.018575	0.099537
C	2.933828	1.136717	0.12748
N	4.226307	1.3393	0.564948
C	4.543491	2.739417	0.652175
C	3.33204	3.382778	0.046726
C	2.411442	2.456019	-0.2539
H	0.793095	-0.850888	-0.375319
H	4.705566	0.631623	1.101498
H	5.466152	3.003209	0.098559
H	4.693086	3.08882	1.695141
H	3.250175	4.459403	-0.11189
H	1.42685	2.596458	-0.693421
