10

C	-0.750521	1.093159	0.030761
C	0.644847	1.163551	0.033273
N	1.401597	0.070409	0.035729
C	0.758845	-1.093504	0.035661
C	-0.636523	-1.163896	0.033148
N	-1.393272	-0.070754	0.030693
H	-1.357853	2.005293	0.028747
H	1.157216	2.13235	0.033284
H	1.366171	-2.005642	0.037675
H	-1.148888	-2.132698	0.033138
