16

C	1.001366	0.000952	0.002874
C	2.525302	-0.006904	-0.019511
C	3.062788	-1.225577	-0.806149
C	3.343141	-0.664789	-2.171859
C	3.350234	0.67158	-2.162744
C	3.075743	1.216663	-0.789527
H	0.611987	0.889369	0.524469
H	0.602662	-0.890362	0.512338
H	0.599008	0.009971	-1.023643
H	2.894902	-0.015857	1.018368
H	2.342931	-2.062614	-0.820214
H	3.990829	-1.628087	-0.359093
H	3.553396	-1.287599	-3.045245
H	3.567064	1.30402	-3.027561
H	4.007897	1.603203	-0.337026
H	2.364721	2.06131	-0.792118
