14

C	1.068954	-0.141925	-0.220549
N	2.472873	-0.007132	0.082668
C	2.963624	1.359313	0.003704
C	2.415001	2.190431	1.089784
C	1.941929	2.884672	1.95983
C	4.432121	1.379906	0.02456
C	5.641139	1.383115	0.004119
H	0.784474	-1.203073	-0.177187
H	0.77307	0.2561	-1.216284
H	0.47151	0.390237	0.53585
H	3.041323	-0.590163	-0.525515
H	2.65497	1.85923	-0.947947
H	1.52958	3.500024	2.738162
H	6.715684	1.393895	-0.007346
