13

C	2.23724	0.484783	-0.837948
C	2.388932	-0.012832	0.643091
C	2.890796	1.390252	0.902913
N	3.354908	2.32145	1.692922
C	3.513112	3.38607	0.833562
C	3.141083	3.083926	-0.470447
N	2.743743	1.778342	-0.374775
H	1.206464	0.523475	-1.221601
H	2.889713	-0.008907	-1.574082
H	3.121195	-0.821463	0.786189
H	1.444236	-0.285641	1.136144
H	3.894627	4.342993	1.189628
H	3.137781	3.675313	-1.381936
