19

N	1.272095	2.827251	-1.626361
C	2.563514	2.973674	-0.98289
C	3.238712	1.621979	-0.804802
C	4.612076	1.722078	-0.194554
C	5.632085	0.633625	-0.408605
C	5.827828	1.965405	-1.058254
N	6.933011	2.791188	-0.677018
H	0.839468	3.735503	-1.7781
H	0.636837	2.306857	-1.022924
H	2.531769	3.486401	0.004702
H	3.203674	3.602215	-1.626617
H	3.297629	1.129688	-1.790556
H	2.59677	0.9717	-0.180766
H	4.647496	2.206486	0.7898
H	5.355652	-0.220686	-1.033274
H	6.291369	0.3759	0.426584
H	5.628289	1.995509	-2.137799
H	7.221778	2.589198	0.277285
H	6.665815	3.77404	-0.699332
