18

N	0.822777	-0.012467	-0.176514
C	2.209356	0.020153	0.157675
C	3.173249	-0.847506	-0.612119
C	2.676363	-1.483508	-1.904251
C	2.823806	-0.386047	-2.970934
C	2.693729	0.947266	-2.216091
C	3.183768	0.650566	-0.804152
H	0.361384	0.852808	0.095161
H	0.349301	-0.773453	0.304895
H	2.480117	0.155207	1.217385
H	3.965969	-1.34618	-0.046918
H	3.255752	-2.385335	-2.152994
H	1.621751	-1.785173	-1.805925
H	3.830573	-0.450695	-3.41781
H	2.099376	-0.486259	-3.795049
H	3.285418	1.748547	-2.683373
H	1.643201	1.277956	-2.197834
H	3.984248	1.264851	-0.381453
