14

C	0.99948	-0.077216	0.166265
C	2.490379	0.074956	-0.051111
C	3.237365	1.151148	0.775142
C	4.083621	-0.030957	1.254379
O	3.239143	-0.967161	0.577702
C	2.801227	0.145579	-1.493878
N	3.050245	0.214025	-2.621976
H	0.797757	-0.125336	1.245666
H	0.64271	-1.00688	-0.299967
H	0.451003	0.77036	-0.270819
H	2.598548	1.603037	1.545869
H	3.74723	1.939543	0.20738
H	5.115299	-0.048464	0.86208
H	4.112436	-0.213074	2.341309
