17

C	3.252697	-0.330732	0.424259
O	2.537883	0.872328	0.421617
C	3.199931	2.033922	0.211523
C	2.226693	3.166125	0.268523
C	4.525227	2.117747	-0.020648
C	5.319677	3.366502	-0.232631
O	6.360015	3.501848	0.708461
H	2.52641	-1.13036	0.619099
H	4.026522	-0.346034	1.21321
H	3.742677	-0.519107	-0.548208
H	1.673259	3.125505	1.219514
H	1.484367	3.059669	-0.53847
H	2.708797	4.145061	0.174364
H	5.122145	1.202159	-0.034847
H	4.664279	4.259105	-0.248112
H	5.814875	3.334223	-1.217857
H	5.962785	3.400019	1.580244
