20

C	2.102046	-0.471394	-1.348501
N	2.308828	0.082392	-0.032326
C	3.112125	1.274619	-0.022405
C	2.465382	2.580245	-0.523372
C	3.177741	3.315654	0.627224
C	3.341421	1.957114	1.339679
C	4.600616	1.661947	2.123813
H	1.509236	-1.396494	-1.283701
H	3.037691	-0.70106	-1.905723
H	1.527213	0.239277	-1.965607
H	2.72836	-0.613809	0.58041
H	4.096366	1.139904	-0.531567
H	1.375974	2.536179	-0.366812
H	2.670896	2.902868	-1.554921
H	4.152752	3.72168	0.312582
H	2.62655	4.10893	1.153861
H	2.446666	1.761361	1.955853
H	5.49819	1.836331	1.507828
H	4.628061	0.615183	2.467582
H	4.677796	2.303161	3.015852
