15

C	1.00014	-0.05472	0.00422
C	2.52	0.0	0.0
C	3.00202	1.36117	0.0
C	3.3993	2.48307	0.0
C	3.85595	3.7726	0.0
C	4.25323	4.8945	0.0
C	4.73525	6.25567	0.0
H	0.65777	-1.09338	0.00275
H	0.58537	0.44152	-0.88002
H	0.58882	0.43952	0.89018
H	2.8954	-0.53271	-0.88091
H	2.8993	-0.53413	0.87827
H	3.94158	6.95478	-0.2809
H	5.55872	6.38212	-0.70957
H	5.10009	6.54453	0.99047
