17

C	0.710888	-0.243011	-0.221878
C	2.161917	0.04682	-0.029247
C	2.753611	1.24529	0.111391
C	2.050975	2.569863	0.09056
C	4.257259	1.340051	0.260812
C	4.82905	1.760329	-1.072609
O	5.121312	2.889235	-1.36304
H	0.549766	-0.842925	-1.133555
H	0.096087	0.663376	-0.302304
H	0.315822	-0.842272	0.616567
H	2.811079	-0.837322	0.014676
H	0.994344	2.492488	-0.195308
H	2.54899	3.263246	-0.606839
H	2.101485	3.044279	1.08569
H	4.679813	0.364546	0.54634
H	4.534096	2.098121	1.01056
H	4.906624	0.930557	-1.825146
