18

C	0.955705	0.008528	0.008599
C	2.410598	0.002441	0.004436
C	3.623652	-0.005067	-0.000925
C	5.086884	-0.001042	-0.015807
C	5.650609	-0.794482	-1.195829
C	5.623107	1.440499	0.010654
N	7.064989	1.454244	0.14657
H	0.559982	1.036207	0.026429
H	0.555085	-0.517407	0.890003
H	0.551011	-0.487999	-0.887782
H	5.428099	-0.488426	0.919182
H	5.282976	-0.376967	-2.146342
H	5.344989	-1.849631	-1.148413
H	6.747813	-0.729662	-1.189449
H	5.080039	1.998468	0.801215
H	5.354559	1.92204	-0.94516
H	7.335203	1.210418	1.097676
H	7.435881	2.38417	-0.029375
