15

N	1.576521	-2.512975	1.004756
N	2.17626	-1.322333	1.0853
C	2.294908	-0.595476	0.045287
C	3.052072	0.68413	0.110848
O	2.229714	1.723233	-0.37922
C	2.755889	2.956112	-0.435222
C	3.976729	3.355311	-0.057967
H	1.226343	-2.837995	1.896749
H	0.93769	-2.671946	0.223174
H	1.862158	-0.881967	-0.932189
H	3.972587	0.630745	-0.505071
H	3.354056	0.870887	1.156434
H	2.027675	3.659129	-0.852469
H	4.72608	2.686415	0.367229
H	4.244468	4.405539	-0.177179
