12

N	1.716148	-0.723035	0.404517
C	2.260663	0.29998	-0.100088
C	2.077109	0.552169	-1.527906
N	1.983929	0.827928	-2.648958
N	3.042348	1.223731	0.629254
C	4.202767	1.83966	-0.009411
C	2.997371	2.63907	0.271756
H	1.945237	-0.747036	1.40507
H	4.403851	1.592331	-1.059029
H	5.086984	1.908408	0.631351
H	2.960094	3.31998	1.1276
H	2.382671	2.933333	-0.588035
