16

C	0.972356	-0.024007	0.02888
C	2.485452	0.042737	0.050912
C	3.121271	1.180516	0.849586
C	4.490329	0.624476	1.258457
N	4.230467	-0.793011	1.33861
C	3.124221	-1.207391	0.658495
O	2.736976	-2.348034	0.543606
H	0.647803	-0.958397	-0.451606
H	0.53735	0.824664	-0.51998
H	0.562964	-0.017125	1.051518
H	2.861991	0.073108	-0.990112
H	2.517994	1.369627	1.753093
H	3.197192	2.126744	0.295134
H	5.263526	0.857618	0.500606
H	4.839089	1.030302	2.221221
H	4.880739	-1.467586	1.720722
