15

C	1.06118	0.039421	0.636015
C	2.42972	-0.039542	0.017382
C	2.667259	0.682489	-1.26849
O	3.97198	1.090958	-1.585446
C	4.722072	-0.033645	-1.715113
C	4.035715	-1.179002	-1.587454
C	2.629158	-0.836194	-1.259609
H	0.95357	0.944834	1.254756
H	0.859924	-0.834564	1.275795
H	0.274632	0.07032	-0.135141
H	3.273308	-0.063061	0.717182
H	1.898865	1.331994	-1.697662
H	5.779877	0.136708	-1.916157
H	4.441208	-2.182214	-1.704148
H	1.795322	-1.42084	-1.66176
