17

C	0.954593	-0.030446	-0.022934
C	2.409023	-0.012535	-0.005327
C	3.621318	-0.001333	0.009494
C	5.078739	0.037996	0.026312
C	5.652176	1.461729	-0.055693
C	7.147529	1.469273	-0.081066
C	7.93324	2.041198	0.832392
H	0.543328	0.991153	-0.033171
H	0.549733	-0.543076	0.864214
H	0.570982	-0.552465	-0.914059
H	5.470183	-0.565242	-0.812656
H	5.451836	-0.449545	0.94406
H	5.279524	2.056913	0.793508
H	5.261255	1.940051	-0.971213
H	7.614068	0.943062	-0.92529
H	7.513439	2.572405	1.69345
H	9.023523	2.004663	0.754928
