17

C	2.091261	0.101216	0.762352
C	3.480997	-0.131802	0.198663
N	4.196817	1.109943	0.069174
C	5.38337	1.14304	-0.410234
C	6.189258	-0.008436	-0.925737
N	6.01266	2.365083	-0.390358
O	5.182107	3.41375	-0.064409
H	1.539114	-0.844973	0.867706
H	1.5159	0.769073	0.103057
H	2.15323	0.580889	1.750807
H	3.396364	-0.649058	-0.779079
H	4.030769	-0.834036	0.857942
H	5.663831	-0.502057	-1.757598
H	6.322085	-0.759295	-0.131145
H	7.185143	0.304851	-1.267203
H	6.576063	2.593181	-1.205917
H	4.35149	2.9141	0.145851
