16

C	0.995515	-0.005705	-0.038605
C	2.52687	-0.035922	0.037551
C	3.002186	-0.718707	1.313192
C	3.092178	-0.730487	-1.207952
C	3.007138	1.404448	0.006125
O	3.666257	1.939642	0.854851
H	0.643914	0.529374	-0.935724
H	0.559346	0.484612	0.845579
H	0.599565	-1.032259	-0.086574
H	2.618205	-0.200112	2.203704
H	4.100112	-0.710266	1.378997
H	2.65721	-1.763557	1.342008
H	2.787358	-0.215555	-2.133494
H	2.718056	-1.764554	-1.264213
H	4.192433	-0.76807	-1.181634
H	2.688297	1.968879	-0.913721
