17

C	0.871383	0.141755	-0.150102
C	2.334445	-0.177498	-0.003279
C	3.056378	-0.995878	-1.030046
C	3.352541	0.476931	-0.891014
N	4.591909	0.871748	-0.322632
C	5.781738	0.780433	-1.003965
N	6.015134	0.258489	-2.139816
H	0.600052	1.054344	0.403865
H	0.246162	-0.681292	0.230137
H	0.603794	0.300171	-1.206231
H	2.67634	-0.332921	1.026503
H	2.502032	-1.320911	-1.915417
H	3.829149	-1.689042	-0.689381
H	2.957061	1.126555	-1.687623
H	4.565004	1.477794	0.487139
H	6.622935	1.216885	-0.439211
H	5.152823	-0.105843	-2.555788
