14

O	1.755934	-0.672276	-1.097435
C	2.726239	-0.369163	-0.127392
C	2.871194	1.111057	-0.029011
C	4.04042	1.769265	-0.013564
C	4.164824	3.209027	0.136332
C	5.330466	3.870552	0.163293
H	1.558117	-1.611752	-1.04306
H	3.710634	-0.8255	-0.357609
H	2.425468	-0.755097	0.871655
H	1.92938	1.667658	0.055506
H	4.974962	1.202368	-0.117262
H	3.227115	3.769787	0.232104
H	6.285321	3.343058	0.071848
H	5.370786	4.956347	0.278633
