13

C	0.965157	0.017495	0.063043
C	2.4934	-0.017714	0.010982
C	2.986382	-0.784651	-1.232384
C	4.428243	-0.997704	-1.260484
N	5.570309	-1.180464	-1.264884
C	3.044974	1.339192	0.043573
N	3.455135	2.420614	0.066164
H	0.61557	0.562016	0.950855
H	0.564372	-1.005663	0.106341
H	0.553684	0.515374	-0.827559
H	2.874934	-0.534876	0.908225
H	2.684875	-0.250657	-2.148292
H	2.492706	-1.769002	-1.25807
