14

O	1.12653	-0.08262	0.097187
C	2.329089	-0.019779	0.047445
N	3.255893	-1.026878	0.085987
C	4.549514	-0.344962	-0.013385
C	4.267762	0.674678	-1.141611
C	3.261092	1.201982	-0.077257
C	4.347937	0.829111	0.973038
H	3.075534	-2.016764	0.163132
H	5.415526	-1.018998	0.003447
H	3.867405	0.279971	-2.087944
H	5.096835	1.373847	-1.325655
H	2.763686	2.177015	-0.129663
H	5.1858	1.542283	0.990105
H	4.022936	0.578934	1.994762
