13

C	1.128853	-0.070432	-0.026927
C	2.437942	-0.236428	0.200868
N	3.416965	0.705853	-0.035976
C	4.77706	0.550417	0.196135
N	5.400006	-0.460171	0.662307
C	5.527032	1.737455	-0.162833
C	6.123375	2.744997	-0.472335
H	0.430832	-0.877523	0.194884
H	0.723202	0.860515	-0.432944
H	2.809569	-1.180709	0.608505
H	3.12877	1.599504	-0.415036
H	4.771505	-1.235261	0.880087
H	6.66929	3.631123	-0.741466
