15

N	2.586572	-1.054776	-0.561951
C	2.213339	0.268719	-0.530894
N	1.025122	0.721681	-0.389199
C	3.348856	1.227989	-0.606311
C	3.108013	2.602209	-1.188975
C	3.302312	2.469039	0.267686
O	4.478954	2.971159	0.789929
H	3.491749	-1.295084	-0.941281
H	1.8647	-1.752043	-0.688637
H	0.335946	-0.030949	-0.328778
H	4.349315	0.809948	-0.751698
H	2.094591	2.794529	-1.549149
H	3.931104	3.047623	-1.753132
H	2.401748	2.547886	0.892398
H	4.658098	2.504548	1.612933
