17

C	2.137051	-0.466935	-1.321918
N	2.335925	0.091907	-0.006868
C	3.14089	1.28325	0.002288
C	2.489355	2.582489	-0.515434
C	3.166385	3.332227	0.64816
C	3.344374	1.977059	1.359522
H	1.541434	-1.390164	-1.257164
H	3.075755	-0.701408	-1.871945
H	1.568079	0.24246	-1.946037
H	2.748918	-0.601395	0.613579
H	4.126039	1.145429	-0.501595
H	1.397655	2.5228	-0.380074
H	2.709841	2.905384	-1.544215
H	4.13144	3.769142	0.34924
H	2.582766	4.108372	1.164913
H	4.281443	1.788592	1.906288
H	2.49096	1.75155	2.018421
