18

N	2.458264	-0.367214	1.896962
C	2.34261	-0.284336	0.442466
C	3.339866	0.720749	-0.124363
C	4.805183	0.428875	0.198712
O	5.054248	0.425146	1.587769
C	5.341008	-0.875754	-0.390247
O	6.650778	-1.081075	0.044284
H	1.942175	-1.162232	2.266404
H	2.068584	0.466608	2.335425
H	1.322191	-0.020908	0.09917
H	2.550639	-1.285563	0.032692
H	3.10103	1.725112	0.267517
H	3.211376	0.777101	-1.218196
H	5.422296	1.241789	-0.225097
H	4.280046	-0.026427	1.989093
H	5.333928	-0.83446	-1.493362
H	4.679086	-1.718791	-0.092008
H	6.642143	-0.774338	0.964628
