14

C	0.920056	0.075637	-0.267253
C	2.114799	0.016969	-0.078115
C	3.57636	-0.020323	0.107975
N	4.044732	-1.213369	0.810997
C	4.793893	-0.840836	2.003965
C	4.742151	0.656446	2.019895
C	4.065161	1.121469	0.97174
H	-0.143143	0.115732	-0.416662
H	4.022887	0.055945	-0.905373
H	4.551935	-1.8406	0.200929
H	5.837664	-1.210224	1.980203
H	4.345641	-1.258794	2.927858
H	5.185431	1.26306	2.812577
H	3.844842	2.165019	0.741655
