15

C	0.797235	-0.077075	-0.253152
C	2.132419	-0.614062	0.158581
C	2.299621	-1.852714	0.648214
C	3.268347	0.34444	-0.03031
O	3.045779	1.436844	-0.517854
C	4.650643	-0.039189	0.379633
C	5.66319	0.814153	0.201413
H	0.558213	0.835418	0.314076
H	-0.000543	-0.816559	-0.101084
H	0.816689	0.22486	-1.311259
H	1.44563	-2.525921	0.767709
H	3.272287	-2.248601	0.944126
H	4.828503	-1.016999	0.83047
H	5.46969	1.792306	-0.249728
H	6.685317	0.564991	0.496176
