13

C	0.995895	-0.037375	-0.088966
C	2.52231	-0.003704	-0.031893
C	3.196686	-0.642672	-1.219102
N	2.494334	-1.177921	-2.130225
O	3.245252	-1.729818	-3.120858
C	3.026221	1.36537	0.133348
N	3.422281	2.44513	0.261166
H	0.568494	0.418406	0.814528
H	0.651692	-1.076774	-0.166759
H	0.629349	0.50454	-0.970919
H	2.861357	-0.553345	0.867622
H	4.296043	-0.638247	-1.272986
H	2.590777	-2.0759	-3.737236
