15

C	1.091855	0.143412	0.090717
C	2.582946	-0.115728	-0.12699
N	2.899834	-0.831737	-1.351279
C	3.348299	1.185148	-0.108106
C	3.80286	1.801041	1.138087
O	4.701789	1.147473	0.269563
H	0.893972	0.633448	1.057414
H	0.527213	-0.801485	0.067119
H	0.68873	0.792372	-0.70538
H	2.972749	-0.716345	0.713684
H	2.520556	-0.330811	-2.154961
H	2.449549	-1.744515	-1.351477
H	3.130245	1.851059	-0.960064
H	3.605573	1.291771	2.091857
H	3.903862	2.892427	1.209017
