17

C	1.267028	-0.228571	0.808629
N	2.65846	0.012642	0.531775
C	2.971635	1.384941	0.227208
C	4.426813	1.519537	-0.153932
O	4.647247	0.760473	-1.311306
C	5.97969	0.721438	-1.714363
H	1.096381	-1.300708	0.990238
H	0.570605	0.095029	0.002221
H	0.9649	0.306039	1.725227
H	2.978578	-0.564081	-0.243538
H	2.780541	2.014599	1.114915
H	2.35129	1.807488	-0.597525
H	5.061066	1.150623	0.678191
H	4.682637	2.585751	-0.327016
H	6.042652	0.107026	-2.623766
H	6.63665	0.274059	-0.941216
H	6.373658	1.731238	-1.94762
