14

O	1.151574	0.255011	-0.013225
C	2.527745	-0.026322	-0.076749
C	2.797352	-0.809772	-1.284503
C	3.044203	-1.437519	-2.289014
C	3.345107	1.251875	-0.073642
C	3.69848	1.919292	1.202142
N	4.687324	1.16501	0.450403
H	1.012326	0.794768	0.773017
H	2.867333	-0.62929	0.791856
H	3.26076	-1.997455	-3.180038
H	3.1462	1.895408	-0.940349
H	3.402125	1.473514	2.159711
H	3.742141	3.014786	1.209447
H	5.325999	1.774663	-0.055834
