12

C	0.997174	0.037204	-0.037801
C	2.496676	-0.050042	0.046223
C	3.171879	-1.204303	0.194613
C	3.209809	1.182663	-0.039414
C	3.778757	2.259955	-0.10351
C	4.432776	3.464674	-0.178178
N	4.988191	4.485589	-0.240577
H	0.597621	0.670767	0.769336
H	0.54275	-0.959527	0.038576
H	0.68604	0.492737	-0.990866
H	2.638324	-2.155656	0.264484
H	4.262373	-1.225771	0.251524
