18

C	1.996894	-0.408917	-1.040217
O	1.841662	0.656565	-0.148087
C	3.015148	1.337713	0.105195
C	3.526224	2.336609	-0.907463
C	2.952191	2.811922	0.39933
C	1.600948	3.478371	0.397236
N	3.863611	3.404161	1.339657
H	1.007923	-0.862022	-1.197613
H	2.679834	-1.185008	-0.642223
H	2.395035	-0.075434	-2.017751
H	3.772337	0.759048	0.660188
H	2.913544	2.486943	-1.801003
H	4.6047	2.422391	-1.074896
H	0.912491	2.971665	-0.290972
H	1.703109	4.535656	0.111166
H	1.153096	3.437279	1.404138
H	4.791642	2.99556	1.260594
H	3.545143	3.223848	2.291483
