15

C	2.048053	-0.304285	1.486844
C	2.523047	0.043436	0.078041
C	3.095445	1.432449	-0.052817
C	2.147009	2.573501	0.172668
C	4.383309	1.632341	-0.357555
H	1.666915	-1.335928	1.529358
H	1.235317	0.357488	1.82461
H	2.872224	-0.218003	2.212215
H	1.673656	-0.056683	-0.622991
H	3.278999	-0.689736	-0.24546
H	1.276236	2.497931	-0.500602
H	2.62951	3.546505	0.00535
H	1.746321	2.567815	1.199685
H	5.065326	0.793339	-0.524638
H	4.799595	2.63936	-0.454218
