19

C	1.53273	0.407357	-0.607775
C	2.498358	0.996449	0.365817
C	3.462581	1.859609	0.033648
O	4.272006	2.442365	0.942803
C	5.519415	2.924291	0.46695
C	6.033434	3.901554	1.502244
C	6.476311	1.772295	0.210232
H	1.57573	-0.695586	-0.606205
H	1.731883	0.748114	-1.6359
H	0.491045	0.680326	-0.364909
H	2.407354	0.724502	1.423234
H	3.619725	2.172224	-1.011084
H	5.344918	3.466799	-0.485999
H	6.186218	3.388152	2.463763
H	5.308968	4.713287	1.658316
H	6.991145	4.337652	1.183397
H	6.660193	1.219854	1.144766
H	7.438961	2.139228	-0.17557
H	6.056815	1.067728	-0.524229
