13

C	1.306832	0.122557	0.004656
C	2.786323	0.056136	-0.000931
N	3.647663	1.024873	-0.007547
C	4.844628	0.355158	-0.008635
C	6.162474	1.035701	-0.016076
N	4.721095	-0.945983	-0.002195
O	3.36455	-1.144726	0.00152
H	0.877891	-0.886387	-0.005491
H	0.951428	0.679311	-0.874241
H	0.956914	0.657766	0.899212
H	6.972994	0.29682	-0.010597
H	6.256501	1.688143	0.864681
H	6.254686	1.672252	-0.908628
