14

N	0.98022	-0.294385	-0.238177
C	2.335382	0.038014	0.079397
C	3.521728	-0.724977	-0.584702
O	4.3158	0.459284	-0.345343
C	3.097068	1.144032	-0.714081
C	2.904234	0.699023	-2.168329
C	3.199456	-0.601161	-2.078086
H	0.348918	0.407392	0.143634
H	0.723867	-1.174583	0.205193
H	2.563479	0.165117	1.156523
H	3.942892	-1.655594	-0.179925
H	3.065017	2.209804	-0.448161
H	2.588045	1.302273	-3.017643
H	3.200033	-1.387699	-2.831118
