17

C	1.121958	-0.277647	0.244927
C	2.623713	-0.144039	0.053606
C	3.073265	1.299971	-0.06851
O	2.715303	2.001095	1.088259
C	4.580346	1.439454	-0.276326
N	4.929583	2.846826	-0.171567
H	0.82115	-1.328392	0.371453
H	0.572248	0.128082	-0.619994
H	0.802637	0.284191	1.134591
H	2.950312	-0.694955	-0.845976
H	3.152777	-0.592213	0.91298
H	2.568038	1.74239	-0.961597
H	3.320741	2.763756	1.088751
H	4.88255	0.955659	-1.227054
H	5.087742	0.899016	0.540232
H	4.721262	3.343643	-1.035657
H	5.917393	2.982502	0.022203
