18

C	1.022793	0.075107	0.171547
C	2.512889	-0.11314	0.215574
C	3.0166	-1.45874	0.499605
C	2.26463	-2.533814	0.779565
C	3.333749	0.93897	0.002906
C	4.828841	0.988445	0.019242
N	5.311313	1.76714	-1.10813
H	0.758048	1.113498	-0.069411
H	0.560499	-0.177996	1.140381
H	0.559786	-0.582328	-0.582619
H	4.10339	-1.588321	0.479436
H	1.173257	-2.489103	0.830297
H	2.724499	-3.50522	0.976334
H	2.878671	1.912586	-0.216348
H	5.263065	-0.028087	0.094076
H	5.139444	1.512056	0.94337
H	5.116119	1.279198	-1.980436
H	6.320086	1.888107	-1.05835
