13

O	2.795891	-0.582576	-0.514484
C	2.277774	0.241256	0.190454
C	2.950772	1.523702	0.59558
N	4.339844	1.511397	0.247857
C	4.989219	2.784989	0.13727
C	4.39699	3.694043	-0.868781
N	3.868925	4.352638	-1.661154
H	1.232525	0.114677	0.56871
H	2.795145	1.673663	1.681423
H	2.35719	2.327696	0.096969
H	4.492538	0.909363	-0.559175
H	6.05188	2.639355	-0.113252
H	4.972905	3.309167	1.108833
