19

C	1.171375	-0.14652	0.106338
C	2.642501	-0.07453	-0.201816
C	3.163181	-0.398986	-1.573079
C	3.206179	1.016045	-1.067616
C	4.484548	1.713236	-0.721303
C	5.785694	0.980252	-0.570662
C	5.570604	1.892039	-1.74325
H	0.907336	0.498144	0.960152
H	0.860988	-1.174392	0.353583
H	0.569752	0.181691	-0.756483
H	3.299065	-0.382237	0.62111
H	2.433974	-0.633051	-2.354681
H	4.096417	-0.962613	-1.656543
H	2.459188	1.683976	-1.514803
H	4.344086	2.55404	-0.031483
H	5.805408	-0.096966	-0.758539
H	6.466127	1.301326	0.223069
H	6.110598	2.84193	-1.778788
H	5.413319	1.424653	-2.720066
