15

C	1.126891	-0.055526	0.198436
N	2.476057	0.011066	-0.276281
C	3.229883	1.23694	-0.195002
C	4.572409	0.747266	-0.720852
O	4.605946	-0.619271	-0.361477
C	3.342498	-1.069677	-0.164439
N	3.126948	-2.293022	0.070343
H	0.655198	-0.989287	-0.142064
H	0.543809	0.775609	-0.224407
H	1.051908	-0.009344	1.303335
H	3.304429	1.612143	0.847027
H	2.792567	2.034826	-0.815941
H	4.629799	0.844453	-1.819671
H	5.436029	1.257422	-0.273054
H	2.140148	-2.469138	0.246127
