11

C	0.987206	-0.052104	0.003632
C	2.513854	0.030454	0.000208
C	3.019815	1.391828	3.2e-05
C	3.425897	2.538631	-6.9e-05
C	3.88511	3.834713	-0.000186
N	4.273318	4.93131	-0.000285
H	0.666425	-1.103389	0.00375
H	0.562484	0.437259	-0.884649
H	0.566542	0.436211	0.89442
H	2.925449	-0.4904	-0.881943
H	2.929479	-0.491683	0.879701
