15

C	1.086497	-0.136174	-0.021086
C	2.578738	0.0359	-0.066393
N	3.336387	-0.388414	-1.237807
C	3.207316	1.040367	-0.951447
C	4.526974	1.696997	-0.636844
O	5.399215	1.606178	-1.727093
H	0.639846	0.489688	0.766901
H	0.815559	-1.1828	0.190348
H	0.62223	0.14761	-0.979208
H	3.091782	-0.186747	0.878685
H	2.703717	-0.665479	-1.987795
H	2.535775	1.619951	-1.599256
H	4.953688	1.225597	0.272024
H	4.384199	2.766047	-0.41155
H	5.392798	0.671819	-1.976009
