14

C	1.274222	-0.171997	-0.306999
C	2.567906	0.447508	0.106385
C	3.775418	-0.437652	0.277519
C	4.611631	-0.422078	-0.983435
O	4.870996	-1.397744	-1.633089
N	2.603135	1.716419	0.25628
O	3.850615	2.175423	0.605308
H	0.506446	0.600484	-0.443258
H	0.9305	-0.896675	0.449336
H	1.39937	-0.728078	-1.25084
H	3.487454	-1.47554	0.492202
H	4.39585	-0.037048	1.097042
H	4.966405	0.595938	-1.283268
H	3.712223	3.121071	0.721837
