12

N	4.853918	-2.176674	-0.594853
C	4.296788	-1.205003	-0.307085
C	3.578839	0.02104	0.049257
N	4.44919	1.170802	0.01533
C	4.591579	1.857902	-1.24606
C	3.813209	2.457727	-0.13386
H	3.184333	-0.101142	1.071577
H	2.698343	0.106305	-0.626049
H	4.02288	1.481057	-2.106855
H	5.597637	2.215263	-1.485617
H	4.228974	3.271514	0.469096
H	2.72095	2.486548	-0.24996
