20

C	3.685682	-0.399786	-0.821928
C	2.817038	0.09084	0.326525
C	3.08664	1.531528	0.764395
C	2.091668	1.996223	1.821738
C	4.497701	1.708021	1.278606
C	5.62207	2.155852	0.42704
N	4.993305	3.071439	1.366715
H	3.413993	-1.424186	-1.118555
H	4.753507	-0.404111	-0.554271
H	3.572272	0.244062	-1.709368
H	2.943899	-0.57406	1.201188
H	1.752881	0.007523	0.044921
H	2.984121	2.19181	-0.116341
H	2.151233	1.366003	2.725269
H	1.056026	1.946847	1.450413
H	2.304957	3.034721	2.115216
H	4.75741	1.021824	2.099637
H	5.442964	2.376755	-0.631511
H	6.624698	1.767367	0.641544
H	5.573336	3.199958	2.193475
