19

C	1.019411	-0.100289	-0.057209
C	2.514794	0.058389	-0.010817
C	3.451398	-0.543852	-1.090271
C	4.523743	-0.355528	0.004615
C	3.402888	-0.700158	1.009272
C	4.594248	1.170854	0.120031
C	3.075321	1.485044	0.108752
H	0.550438	0.305845	0.853995
H	0.729352	-1.158943	-0.142867
H	0.592046	0.438532	-0.91856
H	3.569182	0.001793	-2.042224
H	3.22794	-1.602956	-1.289045
H	5.474418	-0.906973	-0.014667
H	3.173653	-1.776539	1.039053
H	3.47538	-0.301219	2.035836
H	5.091437	1.495795	1.047232
H	5.132278	1.628218	-0.724833
H	2.769741	2.114891	-0.74259
H	2.728362	1.981395	1.029628
