12

C	0.941098	0.012288	-0.005584
C	2.417925	0.087192	-0.002369
C	3.276952	1.116445	0.002353
C	4.643916	0.518011	0.002985
N	4.677855	-0.762462	-0.000834
C	3.29766	-1.157245	-0.004363
O	2.909754	-2.289581	-0.008213
H	0.477824	1.007578	-0.000453
H	0.584054	-0.553277	0.870425
H	0.58741	-0.542234	-0.890016
H	3.056103	2.184622	0.005271
H	5.565659	1.112813	0.006399
