17

C	2.33372	-0.877906	-1.039041
C	2.108337	0.09508	0.112879
C	2.353335	1.522307	-0.266197
C	1.444264	2.504677	-0.217527
O	3.648548	1.694807	-0.658338
C	3.996344	2.78085	-1.392592
C	5.211302	3.320168	-1.320583
H	2.181439	-1.917541	-0.712283
H	3.358916	-0.789816	-1.427507
H	1.63872	-0.676115	-1.868683
H	2.793897	-0.152832	0.942145
H	1.086081	0.006532	0.508147
H	0.42584	2.275578	0.096325
H	1.686233	3.541931	-0.455115
H	3.219535	3.142626	-2.078034
H	5.956144	2.93894	-0.618891
H	5.477084	4.146985	-1.979757
