17

O	1.545838	-0.443526	-1.042589
C	2.527578	-0.22096	-0.061115
C	2.902505	1.223693	-0.066608
C	4.153553	1.686634	-0.112761
C	4.541626	3.13529	-0.059628
C	5.328402	3.463093	1.177046
C	6.584243	3.910847	1.195963
H	1.220286	-1.342918	-0.943305
H	3.433499	-0.839985	-0.223948
H	2.145442	-0.479379	0.95065
H	2.058715	1.924449	-0.018408
H	4.985225	0.971365	-0.170376
H	3.629409	3.755941	-0.091863
H	5.141	3.39392	-0.950068
H	4.806018	3.292033	2.127221
H	7.14112	4.087628	0.269449
H	7.101629	4.123644	2.13532
