13

N	1.207932	0.118505	0.583176
C	2.394568	0.105009	0.119904
N	3.179422	1.216536	0.143244
C	2.709029	2.573186	0.384487
C	3.899748	3.044737	-0.449311
O	4.354209	4.10055	-0.757225
C	4.283247	1.583613	-0.733327
H	0.788289	-0.807547	0.508583
H	2.9083	-0.771232	-0.320003
H	2.696956	2.895646	1.439527
H	1.718938	2.791835	-0.058099
H	4.166716	1.299226	-1.79622
H	5.290706	1.289957	-0.389486
