14

C	1.029427	-0.434905	0.308945
C	2.361032	0.073875	-0.234473
C	2.777	-0.625556	-1.4475
N	3.094921	-1.176738	-2.41465
C	2.364705	1.610009	-0.423
C	3.45337	2.193908	-1.276148
O	1.534112	2.276543	0.135076
H	0.768278	0.131595	1.211777
H	1.089182	-1.504146	0.551857
H	0.228314	-0.282809	-0.427891
H	3.158014	-0.108393	0.513578
H	3.260883	1.946557	-2.333053
H	4.433143	1.757432	-1.027446
H	3.472869	3.283598	-1.151351
