17

C	0.955566	-0.020565	0.002135
C	2.410258	-0.010176	0.001614
C	3.62299	-0.00609	0.001103
C	5.083319	0.018724	0.001406
C	5.681348	1.427977	0.004761
C	5.344682	2.23634	-1.239258
O	5.952897	3.500245	-1.244155
H	0.548801	1.002852	0.00844
H	0.558912	-0.541704	0.888002
H	0.559033	-0.530254	-0.890417
H	5.454959	-0.536409	-0.879087
H	5.451404	-0.53641	0.881211
H	6.777816	1.361604	0.092569
H	5.321777	1.970365	0.897799
H	4.243985	2.301837	-1.352116
H	5.718004	1.707105	-2.132266
H	5.588971	4.005969	-0.510318
