14

O	1.883535	2.330818	-0.669927
C	1.874586	1.480557	0.187536
N	2.978299	0.877196	0.707981
C	4.307123	1.186804	0.286692
C	5.376906	1.497362	1.347237
O	6.270397	0.549685	0.774004
C	5.261018	0.040691	-0.090108
H	0.933924	1.095676	0.650595
H	2.845557	0.173325	1.424424
H	4.221992	1.959778	-0.489296
H	5.067521	1.225677	2.376311
H	5.788531	2.520741	1.361924
H	5.586426	-0.018642	-1.142502
H	4.893945	-0.957337	0.222389
