21

C	-1.532327	0.758228	0.122117
C	-1.535866	-0.752459	-0.087511
C	-0.304028	-1.511499	0.406246
C	0.958145	-1.237537	-0.414104
C	1.768722	0.001342	-0.022404
C	0.969341	1.24224	0.386106
C	-0.312585	1.515753	-0.403159
H	-2.443192	1.173238	-0.341732
H	-1.625196	0.971875	1.203088
H	-1.656102	-0.965603	-1.165811
H	-2.435189	-1.166594	0.399038
H	-0.123477	-1.294567	1.475393
H	-0.529032	-2.590018	0.35669
H	1.629072	-2.111243	-0.364762
H	0.660968	-1.163468	-1.475664
H	2.446158	-0.255616	0.809988
H	2.429347	0.256466	-0.868755
H	0.698161	1.170984	1.454759
H	1.639665	2.115142	0.317964
H	-0.535622	2.594506	-0.349429
H	-0.158861	1.297271	-1.476147
