15

C	3.123635	0.248226	-2.829689
C	3.624528	0.970738	-1.627307
N	4.826111	1.394548	-1.559706
N	5.269697	1.987508	-0.440776
C	6.444657	2.799792	-0.575573
C	6.217168	4.131207	-1.263937
O	6.861372	5.120806	-1.047243
H	2.248924	0.75724	-3.267855
H	2.800919	-0.775471	-2.575558
H	3.916985	0.187929	-3.587745
H	2.922868	1.12084	-0.782208
H	4.564196	2.324218	0.217199
H	7.180262	2.239225	-1.178672
H	6.905105	2.985811	0.407396
H	5.382252	4.120652	-2.015937
