10

N	0.938475	-7.2e-05	0.145975
C	2.091792	0.000252	0.056901
C	3.540998	8.2e-05	-0.057108
C	4.159768	1.131218	-0.833948
N	4.960606	0.705836	-1.733097
N	4.960572	-0.709086	-1.731673
C	4.15969	-1.132632	-0.831696
H	3.973156	0.001051	0.965293
H	3.990927	2.195644	-0.651573
H	3.990826	-2.196682	-0.647183
