14

C	0.658787	0.280938	0.116126
C	2.100364	0.107647	0.45575
C	3.096477	0.709177	-0.204504
N	4.442577	0.562565	0.093331
O	4.767727	-0.257086	1.132438
C	5.490678	1.14318	-0.53665
O	6.635265	0.928525	-0.176703
H	0.18911	-0.684264	-0.137873
H	0.513394	0.961239	-0.736761
H	0.092636	0.686333	0.971975
H	2.359364	-0.547446	1.292558
H	2.924095	1.378983	-1.052128
H	5.747345	-0.183864	1.124215
H	5.195671	1.803393	-1.378063
