16

C	1.575091	-0.132725	0.069487
C	3.069379	-0.052277	-0.18847
N	3.512484	1.310951	-0.141919
C	4.721387	1.564495	0.16256
N	5.230538	2.826349	0.17985
C	4.445256	3.945327	-0.258857
H	1.209796	-1.166156	-0.011415
H	1.028224	0.490507	-0.651855
H	1.333916	0.242269	1.075028
H	3.286819	-0.484531	-1.182931
H	3.604162	-0.708211	0.530394
H	5.461088	0.790092	0.450227
H	6.179202	2.957369	0.490901
H	4.174651	3.854211	-1.324597
H	5.004997	4.874347	-0.102597
H	3.49209	3.996873	0.288036
