21

C	2.997356	-0.793901	-1.249035
C	2.525757	0.04571	-0.072715
C	3.014753	1.51379	-0.054051
C	2.540527	2.261012	-1.299624
C	2.42798	2.196825	1.190921
C	4.519279	1.519713	0.084042
C	5.416411	2.048043	-0.749477
H	2.659208	-1.836213	-1.147387
H	4.096208	-0.800395	-1.322113
H	2.605222	-0.416652	-2.205705
H	2.849651	-0.431289	0.869607
H	1.421548	0.054671	-0.039028
H	2.959273	1.835915	-2.223566
H	2.832226	3.321654	-1.257311
H	1.442597	2.216091	-1.377723
H	2.7447	1.685009	2.113839
H	1.326355	2.182854	1.15877
H	2.756913	3.245228	1.257565
H	4.88445	1.023115	0.99374
H	5.128327	2.554996	-1.674272
H	6.48697	1.992724	-0.533309
