16

C	3.473373	-1.184674	-2.370812
C	3.54014	-0.659379	-1.281034
C	3.640124	0.004568	0.011381
C	4.413326	1.31908	-0.055917
C	3.770597	2.52207	-0.770385
C	4.225469	3.344494	0.446925
N	4.404011	2.09227	1.186682
H	3.410074	-1.652969	-3.335389
H	4.131312	-0.667062	0.737281
H	2.635176	0.214517	0.41491
H	5.428603	1.118958	-0.455127
H	2.676807	2.42533	-0.836397
H	4.168888	2.796643	-1.75544
H	5.163013	3.899259	0.245598
H	3.499671	4.04787	0.889708
H	5.227416	2.019135	1.779136
