14

C	0.995152	-0.085157	-0.291046
C	2.233227	0.676175	0.068721
O	3.434657	-0.063879	0.18995
C	3.343578	0.861896	-0.877268
C	4.208007	2.094514	-0.803069
N	4.854573	2.229408	0.379135
O	4.262224	2.88094	-1.724617
H	0.216361	0.601595	-0.65597
H	0.597871	-0.612843	0.589588
H	1.20917	-0.827669	-1.072888
H	2.111885	1.451484	0.84075
H	3.25637	0.442323	-1.887374
H	4.858957	1.456095	1.032478
H	5.477268	3.015269	0.50722
