17

C	0.80822	-1.16132	0.547043
C	-0.401284	-1.490447	-0.320648
C	-1.547806	-0.527346	-0.188374
C	-1.459683	0.762165	0.159935
C	-0.189574	1.537928	0.373683
C	1.007886	1.026142	-0.420563
O	1.630029	-0.124754	0.083408
H	1.463822	-2.043719	0.61422
H	0.450335	-0.948321	1.575177
H	-0.755724	-2.493266	-0.029155
H	-0.083372	-1.593386	-1.375217
H	-2.546983	-0.941109	-0.365166
H	-2.393181	1.325384	0.270497
H	0.073351	1.589244	1.447012
H	-0.366194	2.583726	0.071012
H	1.794211	1.797473	-0.439
H	0.686497	0.870416	-1.470856
