12

O	1.197201	-0.00146	0.561764
C	2.336034	-0.001285	0.181954
C	3.183767	-1.239872	-0.108873
C	4.497453	-0.670524	-0.546309
C	4.499778	0.668658	-0.538733
C	3.188067	1.237576	-0.094843
H	2.684052	-1.860614	-0.874194
H	3.245271	-1.869327	0.796983
H	5.349034	-1.289788	-0.836848
H	5.353501	1.288206	-0.822303
H	3.251724	1.856518	0.818065
H	2.690537	1.868742	-0.853042
