12

C	1.008593	0.042006	-0.455056
O	2.394593	0.277279	-0.637854
C	2.990642	1.408826	-0.238563
N	2.521038	2.588879	-0.055382
O	1.192209	2.731792	-0.355744
C	4.399957	1.244324	-0.010543
C	5.58429	1.073237	0.175086
H	0.867154	-1.030246	-0.643527
H	0.397408	0.628647	-1.152291
H	0.697683	0.275672	0.574505
H	1.023944	3.654212	-0.139133
H	6.636169	0.934993	0.346633
