16

C	0.879405	0.15268	-0.159136
C	2.368613	0.051933	-0.132081
C	2.960438	-1.324336	-0.309781
N	2.214422	-2.139971	-1.252956
C	3.145215	1.136498	0.079685
C	4.566513	1.120995	0.116534
C	5.781512	1.134776	0.154693
H	0.531089	1.18405	-0.013202
H	0.425983	-0.478331	0.626243
H	0.501066	-0.221399	-1.124193
H	3.049398	-1.775472	0.705012
H	3.994132	-1.214897	-0.671326
H	1.386362	-2.537697	-0.814787
H	2.780046	-2.930646	-1.550271
H	2.667825	2.108949	0.246145
H	6.855121	1.147259	0.187304
