19

C	3.377515	-1.033979	-0.606095
C	3.27147	-0.196266	0.659292
C	3.370083	1.314394	0.41747
C	3.11107	2.11571	1.698571
C	3.061403	3.621199	1.48724
C	4.741965	1.648034	-0.114572
O	4.981473	2.147978	-1.180053
H	3.284531	-2.107376	-0.382155
H	4.340948	-0.88371	-1.119412
H	2.58432	-0.768912	-1.322907
H	4.055383	-0.494433	1.37965
H	2.312378	-0.400605	1.164977
H	2.647012	1.614861	-0.360362
H	3.887957	1.861341	2.442961
H	2.159682	1.765185	2.13335
H	4.011314	4.011316	1.088945
H	2.855547	4.149729	2.429845
H	2.272679	3.8942	0.768462
H	5.574982	1.380603	0.596394
