12

C	2.093815	-1.047485	-0.85293
C	2.056581	0.267584	-0.631843
C	3.245875	1.122355	-0.448773
C	3.329974	2.485646	-1.041033
N	3.076861	2.317783	0.373306
H	1.179419	-1.628163	-0.995976
H	3.042731	-1.591951	-0.899403
H	1.096269	0.794675	-0.579994
H	4.195801	0.576056	-0.374063
H	2.490632	2.873873	-1.629435
H	4.315273	2.825441	-1.3829
H	3.914008	2.497696	0.924454
