16

C	1.057114	0.244335	1.04205
N	2.421187	0.704761	1.169415
C	2.924834	1.463641	0.026818
C	2.446393	2.921205	0.180962
O	2.728864	3.380297	1.458792
C	4.384586	1.377133	-0.014666
C	5.590969	1.287664	-0.05631
H	0.780776	-0.34021	1.932008
H	0.875786	-0.383516	0.144487
H	0.365853	1.099427	0.992426
H	3.049924	-0.064011	1.379927
H	2.538661	1.065618	-0.937741
H	1.359113	2.951567	-0.049161
H	2.949459	3.557908	-0.564054
H	2.635573	2.586166	2.014991
H	6.662678	1.217573	-0.092004
