17

C	1.277255	2.825665	-0.468355
O	2.535595	2.769114	0.126374
C	3.319208	1.706452	-0.32482
C	4.615172	1.713416	0.433676
O	5.667567	0.97164	-0.143869
C	5.808806	2.381411	-0.085687
C	6.886672	2.917533	0.807009
H	0.7424	3.689259	-0.048363
H	0.680145	1.912319	-0.269339
H	1.34119	2.953523	-1.568041
H	3.535224	1.780625	-1.41131
H	2.80453	0.733756	-0.167617
H	4.50894	1.61431	1.524563
H	5.712002	2.878644	-1.063056
H	6.890891	2.388186	1.770314
H	6.735185	3.991537	0.994793
H	7.876219	2.78885	0.3411
