11

N	0.88304	-0.035223	0.081289
C	2.040391	-0.02191	0.05181
C	3.488888	0.005196	0.023862
C	4.232754	1.013112	0.927931
O	5.070096	-0.012797	1.441642
C	4.271452	-1.032666	0.858847
H	3.832037	0.046855	-1.020786
H	3.589743	1.46913	1.702289
H	4.793593	1.806303	0.40782
H	4.86144	-1.767075	0.287128
H	3.646907	-1.563594	1.599808
