13

N	0.978398	-0.240549	-0.008237
N	2.344911	-0.086649	0.018213
C	3.110947	1.061531	0.131407
C	4.424512	0.662936	0.093699
C	4.46881	-0.758509	-0.047221
C	3.160911	-1.184552	-0.090524
O	2.616062	-2.396439	-0.212477
H	0.570899	0.264033	-0.794827
H	0.5574	0.098629	0.856075
H	2.646308	2.03957	0.230141
H	5.28509	1.325951	0.162541
H	5.346558	-1.395879	-0.109809
H	1.653966	-2.244594	-0.204581
