12

C	0.987252	-0.263773	0.165396
C	2.453942	-0.033213	0.15169
C	3.116765	1.13838	-0.003066
C	2.456141	2.455971	-0.195529
O	3.056837	3.488958	-0.326869
C	4.552146	1.148802	0.014908
N	5.710645	1.143902	0.031283
H	0.720445	-0.990544	-0.620192
H	0.382385	0.638945	0.023708
H	0.696266	-0.730966	1.121407
H	3.070429	-0.929915	0.285792
H	1.340445	2.429122	-0.211368
