17

C	2.495246	-0.457036	-1.580673
C	2.483373	0.138052	-0.182354
C	3.43337	1.32095	-0.01268
O	3.476635	1.713461	1.349105
C	3.168645	3.079591	1.498009
C	2.868665	3.567099	0.115125
C	3.029411	2.566728	-0.749137
H	1.839373	-1.337645	-1.644865
H	3.508739	-0.777863	-1.871132
H	2.148714	0.26487	-2.336992
H	2.777821	-0.620773	0.560609
H	1.469143	0.470772	0.09605
H	4.448619	0.997623	-0.331785
H	4.021288	3.625529	1.952162
H	2.308024	3.210303	2.184601
H	2.571447	4.591179	-0.117774
H	2.895485	2.61523	-1.831009
