16

C	0.84571	0.082575	0.293883
C	2.30634	-0.105448	-0.055673
C	3.279731	0.896097	0.604671
N	3.626189	-0.110887	1.613258
C	3.046324	-1.17014	0.807782
C	4.03202	-1.975648	0.006368
O	5.222544	-1.805363	0.044642
H	0.240337	-0.780411	-0.026071
H	0.437157	0.979691	-0.197271
H	0.723651	0.203485	1.381703
H	2.434649	-0.227052	-1.144136
H	2.821096	1.815231	1.010064
H	4.110822	1.186129	-0.0633
H	4.62296	-0.236203	1.784265
H	2.381501	-1.878128	1.344805
H	3.57553	-2.761618	-0.653251
