12

C	0.69103	-0.21558	0.168806
C	2.166189	-0.291001	-0.028284
C	2.984557	-1.249378	0.400439
O	2.716212	0.716446	-0.82438
C	2.64606	1.993388	-0.42575
O	2.180023	2.391457	0.599507
H	0.429477	0.671279	0.765009
H	0.324298	-1.11385	0.68174
H	0.181903	-0.130577	-0.80442
H	2.592727	-2.093701	0.968642
H	4.05286	-1.208218	0.181662
H	3.103843	2.630944	-1.210902
