14

C	-0.007272	0.086201	0.037971
C	1.429666	-0.305202	0.122501
C	2.442805	0.529889	-0.112728
O	3.736758	0.130456	-0.024114
C	4.71937	1.025285	-0.265593
C	6.010185	0.701825	-0.202989
H	-0.547093	-0.516991	-0.711192
H	-0.128303	1.145508	-0.236101
H	-0.525752	-0.070935	0.99915
H	1.677021	-1.336822	0.394574
H	2.290025	1.581469	-0.390973
H	4.378934	2.038831	-0.516706
H	6.325115	-0.312445	0.049253
H	6.766271	1.45981	-0.405944
