15

C	0.864029	0.114413	-0.008824
C	2.353457	0.024695	-3.3e-05
C	3.270593	1.04463	0.008858
C	4.632382	0.610019	0.014521
C	5.813353	1.534864	0.026703
C	4.714586	-0.760362	0.009434
S	3.163841	-1.502453	-0.001508
H	0.554378	1.168719	-0.001203
H	0.417076	-0.374902	0.871401
H	0.428635	-0.358599	-0.903703
H	2.975892	2.096702	0.011309
H	5.492062	2.585822	0.002823
H	6.467702	1.36679	-0.843257
H	6.426738	1.395401	0.931126
H	5.614779	-1.375019	0.011604
