17

C	1.751298	1.791478	-1.976967
O	3.08047	1.835698	-1.566537
C	3.245562	1.719565	-0.181548
C	4.721456	1.856098	0.14766
C	5.282229	3.184559	-0.241655
N	5.812455	3.95463	0.624564
N	6.239703	5.175645	0.252488
H	1.729301	1.889938	-3.071939
H	1.151211	2.614238	-1.537933
H	1.261053	0.834911	-1.701823
H	2.86432	0.738965	0.176057
H	2.665055	2.503969	0.348984
H	5.259607	1.050627	-0.38284
H	4.876432	1.712856	1.227431
H	5.192131	3.4789	-1.304809
H	6.470245	5.298828	-0.735987
H	6.962242	5.527156	0.868614
