14

C	0.998071	-0.024935	-0.008913
N	2.433269	-0.018	-0.000956
C	3.247929	1.100539	0.004933
C	4.552639	0.674921	0.011409
C	4.549448	-0.750592	0.00891
C	3.227719	-1.134285	0.001349
O	2.722173	-2.383642	-0.00274
H	0.633437	1.009492	-0.001845
H	0.584147	-0.526719	0.883478
H	0.593261	-0.51159	-0.913841
H	2.816627	2.098764	0.004056
H	5.429487	1.319586	0.017242
H	5.401074	-1.425847	0.012321
H	1.760677	-2.360803	-0.014595
