16

N	0.892475	0.12135	-0.432889
C	2.20241	0.001646	0.11517
C	3.183482	-0.980665	-0.499263
C	2.857589	-1.517625	-1.876466
C	2.661123	-0.256986	-2.738948
O	3.190127	0.843726	-2.015285
C	3.379897	0.490403	-0.690075
H	0.560018	1.0813	-0.38316
H	0.226879	-0.468549	0.059192
H	2.334946	0.126317	1.202942
H	3.820971	-1.57445	0.161273
H	3.702343	-2.128918	-2.231377
H	1.95454	-2.147532	-1.887421
H	3.186751	-0.314559	-3.706767
H	1.589717	-0.089185	-2.92549
H	4.172641	1.068496	-0.205536
