16

C	0.994508	0.422987	0.029157
N	2.425481	0.501112	0.153202
C	3.202061	-0.703363	-0.067918
C	3.182586	-1.142772	-1.501771
C	2.732371	-2.322346	-1.929617
C	3.061923	1.663684	0.462963
O	4.258112	1.801406	0.579944
H	0.555067	1.419875	0.177481
H	0.563028	-0.259815	0.782015
H	0.699266	0.057623	-0.968222
H	2.828552	-1.510392	0.587281
H	4.231247	-0.459486	0.239635
H	3.5748	-0.41305	-2.22096
H	2.334028	-3.066993	-1.23183
H	2.756653	-2.597165	-2.987454
H	2.340627	2.505685	0.604823
