12

C	1.003921	-0.032529	0.223474
C	2.481026	0.049988	-0.146082
C	3.043392	1.451244	-0.081722
O	3.559248	2.004649	-1.023701
C	2.934941	2.120493	1.215457
C	2.839962	2.661895	2.29645
H	0.650757	-1.072373	0.168524
H	0.388545	0.569441	-0.461688
H	0.824355	0.330195	1.246793
H	2.665551	-0.311745	-1.168279
H	3.074448	-0.574784	0.544712
H	2.764844	3.156757	3.248412
