14

C	0.878734	0.076834	-0.009382
C	2.369442	0.036204	-0.000214
C	3.262088	1.079399	0.008123
C	4.613308	0.614693	0.014313
C	5.821098	1.499869	0.025526
N	4.764039	-0.692043	0.010883
S	3.279338	-1.425813	0.000281
H	0.526067	1.117058	-0.001419
H	0.454997	-0.432927	0.870056
H	0.466671	-0.415221	-0.904384
H	2.9698	2.130606	0.009858
H	5.539158	2.561281	0.008007
H	6.459206	1.290766	-0.846293
H	6.426924	1.312694	0.925174
