19

C	2.931813	-1.056093	0.693663
C	2.694602	-0.089792	-0.455914
C	3.079998	1.3712	-0.14928
C	2.708903	2.266131	-1.327913
O	2.335997	1.857897	0.946984
C	4.570449	1.471222	0.099762
C	5.128212	2.097448	1.135388
H	2.653336	-2.082987	0.413617
H	2.32152	-0.793836	1.573452
H	3.987665	-1.067164	1.006642
H	1.628513	-0.096757	-0.736201
H	3.256144	-0.420769	-1.345897
H	3.253282	1.971913	-2.23676
H	2.954138	3.31102	-1.090714
H	1.62822	2.194947	-1.522522
H	2.564282	1.324504	1.716474
H	5.206103	0.994594	-0.656805
H	4.507982	2.597202	1.885149
H	6.21302	2.149369	1.258555
