16

C	3.82231	5.511198	1.656701
C	4.360793	4.691682	0.538423
N	5.418954	4.003575	0.697032
O	5.772897	3.325484	-0.435887
C	6.901535	2.511203	-0.188287
C	7.414619	2.017501	-1.499019
C	7.681923	0.741037	-1.771367
H	3.773425	6.576377	1.375772
H	4.458385	5.405516	2.546122
H	2.795957	5.200775	1.911972
H	3.842651	4.680358	-0.434414
H	6.63854	1.671344	0.480662
H	7.674785	3.114905	0.324033
H	7.592344	2.792359	-2.254299
H	7.500287	-0.049944	-1.035715
H	8.097226	0.43592	-2.73532
