19

C	2.235757	-0.743647	-1.482545
C	2.913094	-0.380791	-0.161698
C	3.392341	1.033815	-0.134777
C	4.6516	1.500138	0.015276
C	5.857275	0.628474	0.208987
C	4.863333	2.950353	-0.008091
C	6.036191	3.585026	0.130281
H	1.847392	-1.773345	-1.462989
H	2.941988	-0.660853	-2.323168
H	1.38975	-0.07097	-1.694911
H	3.736235	-1.082925	0.039246
H	2.187085	-0.521372	0.660564
H	2.603353	1.785131	-0.275371
H	5.613833	-0.441302	0.203288
H	6.352876	0.856286	1.167473
H	6.601375	0.812167	-0.583584
H	3.958781	3.553115	-0.154694
H	6.977806	3.050517	0.280399
H	6.092047	4.675943	0.097895
