16

C	3.133601	-1.223386	-0.349296
C	2.437936	-0.018783	0.269213
C	3.389501	1.119486	0.510209
O	3.831543	1.823702	-0.637824
C	3.033343	2.524565	0.299264
C	3.691214	3.650856	1.039067
H	2.427414	-2.046	-0.536724
H	3.930422	-1.607765	0.307906
H	3.596898	-0.945968	-1.308235
H	1.967883	-0.294859	1.229244
H	1.628951	0.331799	-0.392543
H	4.191626	0.909868	1.236928
H	2.010066	2.727489	-0.053283
H	4.698929	3.3614	1.369362
H	3.098844	3.937835	1.921657
H	3.786409	4.53603	0.391108
