13

C	0.965592	-0.147343	-0.11066
C	2.455601	0.094649	0.108521
C	2.831034	1.529823	0.050133
N	3.476818	2.245017	0.920313
C	3.514239	3.466018	0.310939
N	2.93282	3.514189	-0.85292
O	2.478604	2.233108	-1.028819
H	0.742361	-1.223138	-0.077517
H	0.64276	0.239299	-1.088128
H	0.364175	0.349246	0.66509
H	3.041386	-0.442759	-0.656515
H	2.787991	-0.277698	1.087173
H	3.985641	4.348028	0.744131
