14

O	2.837	0.156289	-1.675165
C	2.211705	-0.031577	-0.43066
C	2.931276	0.822709	0.594167
C	4.365126	0.406456	0.76667
C	5.041438	0.450434	2.06201
O	4.581507	-0.770819	1.525778
H	2.491086	-0.492186	-2.294693
H	2.258644	-1.08903	-0.100892
H	1.141102	0.255702	-0.462396
H	2.409485	0.750075	1.561825
H	2.894602	1.876848	0.270161
H	4.973536	0.472158	-0.145645
H	4.496749	0.823372	2.940474
H	6.131685	0.575448	2.107526
