18

C	0.971234	0.104228	-0.029215
C	2.486724	-0.107405	-0.017918
N	2.805056	-1.074907	1.025446
C	2.91792	-0.788948	-1.337202
O	2.34694	-2.05336	-1.441862
C	3.177443	1.22882	0.108081
C	3.94668	1.625276	1.122146
H	0.686584	0.837145	-0.798319
H	0.622167	0.483753	0.943802
H	0.465917	-0.845818	-0.25176
H	2.35695	-0.837368	1.907279
H	3.809578	-1.10778	1.194523
H	4.029578	-0.826442	-1.357348
H	2.601079	-0.17984	-2.200613
H	2.379918	-2.392521	-0.529842
H	3.001415	1.916926	-0.728842
H	4.139861	0.977666	1.983473
H	4.407897	2.615647	1.13753
