14

O	0.944684	0.02452	0.125033
C	2.333709	-0.018227	0.021734
C	3.06032	1.043517	0.855803
C	4.121592	-0.015822	1.229027
O	5.303681	0.033979	0.479575
C	3.113949	-1.105664	0.795979
H	0.577159	-0.684879	-0.412211
H	2.655106	0.019913	-1.04026
H	2.432698	1.319417	1.716599
H	3.419663	1.958623	0.360686
H	4.436253	-0.038274	2.282944
H	5.073684	0.095659	-0.453558
H	3.526952	-1.967641	0.24834
H	2.50693	-1.462091	1.64208
