18

C	1.089345	0.096595	-0.259324
C	2.553896	-0.173789	-0.079895
C	2.908408	-1.639629	-0.075797
O	2.276861	-2.335043	0.975791
C	3.43851	0.820422	0.107269
C	4.92037	0.7343	0.308902
N	5.604852	1.520727	-0.703673
H	0.846332	1.16311	-0.15446
H	0.507263	-0.478232	0.477859
H	0.749949	-0.241194	-1.253991
H	4.003244	-1.788744	-0.063707
H	2.535047	-2.102785	-1.005093
H	2.553322	-1.918111	1.799263
H	3.064656	1.852072	0.080298
H	5.249547	-0.322203	0.375062
H	5.155495	1.183652	1.29137
H	5.480369	1.093285	-1.619703
H	6.606294	1.545987	-0.524501
