15

C	1.322435	2.896076	1.401255
C	2.554303	2.150877	1.027832
N	3.612083	2.759342	0.660054
N	4.694657	2.042996	0.334678
C	5.882042	2.616766	-0.072061
C	5.900612	4.11945	-0.134287
O	6.823391	1.907121	-0.350725
H	1.023773	2.670159	2.438429
H	0.475644	2.607845	0.756434
H	1.491225	3.977437	1.306106
H	2.526831	1.044365	1.078744
H	4.692126	1.021042	0.376472
H	5.12944	4.489933	-0.824617
H	6.895729	4.433615	-0.468464
H	5.67375	4.551726	0.85077
