19

C	1.152453	-0.210038	-0.53995
C	2.660931	-0.181641	-0.383064
N	3.159937	1.174565	-0.40539
C	4.582987	1.33876	-0.164927
C	5.398328	0.840375	-1.352518
C	4.870352	2.808527	0.106368
H	0.772672	-1.242013	-0.563093
H	0.852571	0.295061	-1.470605
H	0.654319	0.306827	0.297504
H	3.117941	-0.744522	-1.214493
H	2.949888	-0.730269	0.544582
H	2.641669	1.729593	0.272643
H	4.906535	0.756369	0.731481
H	5.105804	1.385958	-2.263568
H	5.24568	-0.233367	-1.536333
H	6.474275	0.995036	-1.178041
H	4.569823	3.420546	-0.758998
H	5.940812	2.975371	0.296793
H	4.314721	3.169304	0.987669
