18

C	0.993888	0.025531	0.055776
C	2.331139	0.007739	0.043671
C	3.13988	-1.259742	0.016401
C	4.124417	-1.236261	-1.164736
N	4.944075	-0.044442	-1.2172
C	4.157052	1.170108	-1.197263
C	3.17325	1.252051	-0.018069
H	0.437178	0.967372	0.051895
H	0.413067	-0.901346	0.078063
H	2.487184	-2.145916	-0.03296
H	3.723589	-1.336214	0.95388
H	4.777559	-2.123192	-1.139994
H	3.547786	-1.297187	-2.105466
H	5.608061	-0.043036	-0.444585
H	4.834156	2.039282	-1.1956
H	3.582713	1.221655	-2.139959
H	3.758781	1.338781	0.91736
H	2.544614	2.153615	-0.092513
