17

C	0.892281	0.07502	-0.082028
C	2.404586	-0.074348	-0.081304
C	3.128565	1.265031	0.080573
C	4.621206	1.129484	0.064975
C	5.415461	1.220565	1.142581
C	5.265399	0.859586	-1.242951
O	4.667564	0.768927	-2.28654
H	0.391466	-0.898463	-0.191903
H	0.55616	0.717838	-0.911395
H	0.531776	0.530325	0.854995
H	2.735517	-0.541864	-1.022664
H	2.717432	-0.751599	0.732176
H	2.80993	1.750536	1.017719
H	2.831385	1.927172	-0.750519
H	5.016896	1.429396	2.139335
H	6.499427	1.089868	1.05398
H	6.38109	0.748747	-1.20176
