16

C	1.071876	-0.013229	0.03439
C	2.572534	-0.029947	-0.05723
C	3.27188	-0.694686	-1.196886
C	3.289123	0.806326	-1.103944
C	4.527633	1.526092	-0.748535
N	5.563674	0.901391	-0.35262
O	6.588401	1.745535	-0.014206
H	0.71233	0.843065	0.62701
H	0.694052	-0.932702	0.510036
H	0.612889	0.052955	-0.964727
H	3.101882	-0.077262	0.901497
H	2.658959	-1.140565	-1.986046
H	4.219687	-1.20028	-0.998664
H	2.636062	1.355978	-1.789797
H	4.536795	2.626621	-0.801462
H	7.295675	1.144688	0.240873
