16

N	0.944217	0.117317	0.144921
C	2.389865	0.103554	0.221675
C	2.963594	1.32348	-0.501881
C	4.415896	1.410377	-0.441313
C	5.627134	1.441528	-0.374591
C	7.085497	1.551474	-0.28927
O	7.546288	2.161249	0.887676
H	0.546637	-0.607904	0.736788
H	0.63601	-0.090285	-0.803714
H	2.874371	-0.808	-0.188293
H	2.687637	0.15654	1.281403
H	2.508047	2.230449	-0.069824
H	2.646775	1.303275	-1.560521
H	7.452523	2.07203	-1.198118
H	7.53063	0.543377	-0.31599
H	7.086129	3.00247	0.979022
