16

C	0.941497	-0.033158	0.101595
C	2.446865	0.049457	0.013044
C	3.191648	1.09779	0.861464
C	4.19095	-0.037218	1.201078
N	3.179826	-1.000208	0.737347
C	5.428714	-0.001383	0.42262
C	6.44965	0.011053	-0.231368
H	0.564304	-0.922362	-0.427906
H	0.469532	0.853088	-0.351963
H	0.625618	-0.106644	1.153261
H	2.756334	0.134091	-1.048646
H	2.615362	1.406702	1.745
H	3.59645	1.980426	0.350443
H	4.448636	-0.146553	2.270026
H	3.531186	-1.781745	0.188372
H	7.356917	0.021807	-0.806825
