13

C	0.968785	0.008851	-0.042694
C	2.495895	-0.020859	-0.025137
C	3.106823	-1.257092	0.639967
O	3.496281	-0.82843	1.950933
N	3.555556	0.534862	1.981467
C	3.064197	1.015283	0.908362
H	0.569024	-0.778556	-0.699931
H	0.591547	0.976001	-0.408801
H	0.566277	-0.150068	0.969647
H	2.878913	0.110261	-1.050087
H	4.006138	-1.609098	0.105103
H	2.403916	-2.096522	0.748593
H	3.013207	2.099118	0.778845
