17

C	0.81375	0.104024	0.18158
C	2.312994	0.040134	0.011761
C	3.193203	0.979756	0.84659
O	3.954148	-0.105688	1.369743
C	3.096381	-1.068067	0.761083
C	3.808768	-2.092182	-0.054196
C	5.12729	-2.098731	-0.247622
H	0.317999	-0.743992	-0.316743
H	0.401113	1.028087	-0.253276
H	0.534472	0.079722	1.247247
H	2.588881	0.05995	-1.05422
H	2.645611	1.523671	1.640247
H	3.817416	1.701408	0.291895
H	2.462142	-1.574664	1.519454
H	3.169896	-2.862275	-0.504425
H	5.751306	-1.330451	0.217187
H	5.61366	-2.865711	-0.855575
