20

C	0.862261	0.025729	-0.053829
C	2.358106	-0.232066	-0.156251
C	2.660398	-1.278247	-1.221165
N	3.030314	1.025413	-0.44874
C	4.453393	1.015864	-0.346023
C	5.266834	0.813057	-1.593718
C	5.19288	2.167312	-0.955864
H	0.634523	0.75686	0.739527
H	0.315763	-0.89994	0.178812
H	0.480565	0.427469	-1.005698
H	2.701741	-0.645812	0.821059
H	2.334395	-0.917693	-2.20988
H	2.132095	-2.217954	-0.99984
H	3.735239	-1.501075	-1.277615
H	2.655007	1.755571	0.152672
H	4.886573	0.596619	0.579371
H	4.703647	0.664943	-2.518012
H	6.199724	0.247581	-1.521324
H	6.07294	2.554327	-0.436206
H	4.583552	2.92459	-1.456577
