12

C	0.953131	-0.005635	-0.007939
C	2.433464	0.053116	-0.000712
C	3.288556	1.092254	0.005395
O	4.580293	0.641006	0.010855
C	4.57265	-0.728101	0.007785
O	5.548227	-1.422423	0.011536
N	3.242657	-1.079494	0.000959
H	0.532598	1.008272	-0.006971
H	0.567071	-0.535466	0.878427
H	0.575527	-0.530266	-0.901019
H	3.130291	2.166707	0.00693
H	2.942263	-2.04349	-0.002206
