15

C	3.484754	2.161772	2.177023
O	4.229042	1.158846	1.51423
C	4.176816	1.185676	0.143862
S	5.341857	2.376033	-0.604162
C	6.918038	1.868321	0.061416
O	5.324476	2.133473	-2.044389
O	5.04725	3.705279	-0.063744
H	3.56952	1.959181	3.253019
H	2.418429	2.112414	1.888294
H	3.869198	3.168914	1.954575
H	3.199498	1.491528	-0.278862
H	4.457192	0.201211	-0.261703
H	6.836849	1.835101	1.155359
H	7.630511	2.641536	-0.255837
H	7.190429	0.891603	-0.357312
