14

C	0.986612	0.005438	0.003767
C	2.497735	-0.00554	-0.065462
O	2.915585	-1.126353	-0.870565
N	3.326	-0.687483	-2.089813
C	3.380507	0.588761	-2.107473
C	3.100301	1.218373	-0.769068
O	4.254667	1.753881	-0.178073
H	0.633931	0.818263	0.656344
H	0.614969	-0.950122	0.398754
H	0.557481	0.149446	-0.999993
H	2.949639	-0.126529	0.93165
H	3.710266	1.107219	-3.009713
H	2.377203	2.047166	-0.822564
H	4.951484	1.08872	-0.228192
