21

C	0.962235	-0.011424	0.136036
C	2.472024	0.007789	0.042064
C	3.251388	1.069147	0.846988
C	4.308497	-0.005452	1.215894
C	4.757057	-0.04194	2.66606
C	5.509166	0.035234	0.278493
C	3.274724	-1.080176	0.786305
H	0.536901	-0.891568	-0.372663
H	0.517253	0.886405	-0.322587
H	0.6361	-0.04473	1.188816
H	2.774301	0.040957	-1.018342
H	2.681963	1.39635	1.732624
H	3.60816	1.96529	0.313747
H	3.894392	-0.074901	3.350337
H	5.355318	0.849335	2.919041
H	5.380833	-0.929218	2.865888
H	5.200346	0.063953	-0.778502
H	6.145735	-0.85401	0.417884
H	6.126787	0.927845	0.471648
H	3.649644	-1.937639	0.203963
H	2.712875	-1.467015	1.652386
