15

C	1.118143	-0.189525	-0.246386
N	2.530873	0.016208	-0.131482
C	3.095158	1.268969	-0.124439
N	2.483304	2.393982	-0.161442
C	4.542614	1.243475	-0.057869
C	5.753833	1.20066	-0.008794
C	7.204341	1.180067	0.056469
H	0.902562	-1.265631	-0.218421
H	0.705842	0.215245	-1.190543
H	0.56751	0.28159	0.588179
H	3.15396	-0.776114	-0.181058
H	1.471247	2.25849	-0.214213
H	7.616346	2.193589	-0.06609
H	7.630763	0.543389	-0.734599
H	7.551735	0.789677	1.026117
