21

C	1.113921	-0.257804	0.224394
C	2.620254	-0.137049	0.057295
C	3.167602	1.284315	0.202107
C	2.811759	1.971078	1.527111
C	3.238296	1.22616	2.784334
C	4.675412	1.294283	-0.054268
O	5.256192	2.56791	0.031676
H	0.771123	-1.283276	0.019024
H	0.579192	0.41522	-0.465111
H	0.791595	-0.004145	1.246178
H	2.907103	-0.519495	-0.9379
H	3.127141	-0.800864	0.780148
H	2.705845	1.892052	-0.603061
H	1.724497	2.152233	1.558248
H	3.286473	2.964665	1.519653
H	2.754166	0.240809	2.867528
H	2.969576	1.797159	3.68622
H	4.327326	1.066387	2.815923
H	4.877001	0.8184	-1.036717
H	5.1874	0.670392	0.697294
H	4.838986	3.13008	-0.629595
