17

C	2.523607	-0.590754	1.44824
C	2.608825	-0.0073	0.038774
C	3.148552	1.384702	0.001087
C	4.261447	1.836632	-0.583025
C	4.394413	3.309035	-0.360532
O	3.2568	3.67528	0.389627
C	2.460603	2.54733	0.662699
H	2.134279	-1.619577	1.425381
H	1.856247	0.000584	2.094036
H	3.515105	-0.612736	1.926063
H	1.600712	-0.009116	-0.414948
H	3.234546	-0.652638	-0.597692
H	4.979533	1.238181	-1.147444
H	5.321423	3.56728	0.191963
H	4.426433	3.877702	-1.311821
H	1.433569	2.687955	0.266448
H	2.359376	2.40055	1.757354
