16

O	1.142808	0.097736	0.474879
C	2.297704	0.027644	0.13474
C	3.022156	-1.289402	-0.041703
C	4.015876	-1.278198	-1.201841
C	4.878972	-0.026788	-1.159439
N	4.024221	1.138722	-1.205754
C	3.156335	1.267646	-0.055751
H	2.273256	-2.090558	-0.117756
H	3.572259	-1.448033	0.905789
H	4.643848	-2.182659	-1.174245
H	3.46681	-1.286736	-2.157381
H	5.524293	-0.058368	-0.248557
H	5.555403	-0.005206	-2.028227
H	4.560797	1.98879	-1.347106
H	3.70672	1.40198	0.908565
H	2.47898	2.125719	-0.169192
