13

N	1.142087	-0.151653	-0.079307
C	2.378247	0.120559	-0.143917
C	3.010204	1.382103	0.285172
C	4.33605	1.30206	0.087863
C	4.666246	-0.028581	-0.486938
C	4.349642	-1.217581	0.351309
N	3.408208	-0.742077	-0.656755
H	0.977484	-1.087051	-0.462957
H	2.445273	2.202603	0.726191
H	5.076607	2.0754	0.298649
H	5.406787	-0.110196	-1.290983
H	4.817377	-2.183082	0.131364
H	4.107517	-1.039145	1.406209
