11

N	0.976694	-0.010116	0.007919
C	2.434983	-0.008282	-0.007398
C	2.935277	-0.767768	-1.163442
C	3.345209	-1.429782	-2.088704
C	2.94435	1.371495	-0.027129
C	3.363192	2.50551	0.001724
H	0.649539	0.467789	0.845685
H	0.642578	-0.970787	0.057212
H	2.890673	-0.487187	0.889513
H	3.71308	-2.006936	-2.916995
H	3.738905	3.512003	0.017605
