13

C	0.924508	-0.027376	6.6e-05
C	2.375502	0.005565	-0.000126
C	3.591951	0.036461	-0.000302
C	5.008057	0.030043	-0.00058
C	5.773806	1.14651	0.000632
C	7.191122	1.129095	0.000297
C	8.406182	1.146734	4.4e-05
H	0.501352	0.98889	0.00956
H	0.540383	-0.561284	0.884262
H	0.539847	-0.544702	-0.893721
H	5.50218	-0.948816	-0.001894
H	5.288147	2.128952	0.001957
H	9.480595	1.15967	-0.000193
