15

C	0.900918	0.050206	0.398566
C	2.168663	-0.007019	-0.013132
C	2.993245	1.209065	-0.328248
N	4.234669	1.143746	0.420629
N	4.973849	0.020381	0.371938
C	4.407744	-1.091162	0.087116
C	2.941992	-1.281825	-0.205421
H	0.386068	1.007346	0.520587
H	0.333247	-0.856793	0.625796
H	2.462312	2.134307	-0.061664
H	3.189805	1.229256	-1.423738
H	4.822957	1.965478	0.360076
H	5.056926	-1.974155	0.094584
H	2.828569	-1.638113	-1.248085
H	2.533565	-2.085928	0.429036
