15

C	3.246108	-1.094547	-0.762881
O	2.499747	-0.009265	-0.291695
C	3.155503	1.139523	-0.046887
C	4.477674	1.360486	-0.148323
N	5.083219	2.563328	0.212899
C	6.302692	2.99413	-0.253593
N	7.074692	2.466541	-1.115391
H	2.547519	-1.928152	-0.909688
H	4.024831	-1.398814	-0.038076
H	3.737124	-0.862795	-1.726241
H	2.467629	1.923072	0.286045
H	5.166172	0.582865	-0.486383
H	4.589608	3.175054	0.84929
H	6.620073	3.930567	0.232858
H	6.668138	1.622188	-1.526672
