12

C	2.041546	-1.143453	-0.305981
C	3.137166	-0.382386	-0.402276
C	3.13675	0.993757	0.152989
O	2.180799	1.490047	0.697938
C	4.432047	1.818977	0.074713
C	5.408665	1.406061	-0.919443
N	6.175481	1.05394	-1.711667
H	2.012307	-2.16032	-0.703585
H	1.144906	-0.745787	0.179735
H	4.045986	-0.748304	-0.887857
H	4.899061	1.774008	1.074299
H	4.142247	2.8683	-0.085256
