17

C	1.452573	-0.179077	-0.424184
C	2.864604	0.021225	0.033462
C	3.687381	-1.054935	0.671567
C	4.089208	-0.485637	-0.670483
C	5.084992	0.663693	-0.668398
C	4.20535	1.851527	-0.255774
O	3.142131	1.314188	0.505203
H	1.201763	0.530933	-1.227381
H	0.752773	-0.013205	0.409558
H	1.303377	-1.201377	-0.800289
H	3.28715	-2.072683	0.691076
H	4.279696	-0.768287	1.545433
H	4.003432	-1.122728	-1.555352
H	5.902388	0.49282	0.051119
H	5.541368	0.815429	-1.657774
H	4.727782	2.599703	0.359968
H	3.811821	2.366901	-1.155183
