15

C	1.030995	0.065029	0.227687
C	2.496008	-0.060455	-0.152021
N	2.733519	-1.107751	-1.146806
N	3.589582	-0.710273	-2.106436
C	3.77932	0.563636	-2.006991
C	3.091964	1.144179	-0.859252
C	2.993763	2.435022	-0.509614
H	0.887254	0.881218	0.952122
H	0.660688	-0.864592	0.686836
H	0.425536	0.277277	-0.664967
H	3.096923	-0.267193	0.757526
H	2.858909	-2.068041	-0.850771
H	4.382546	1.09874	-2.741877
H	2.451372	2.749861	0.385184
H	3.463571	3.214874	-1.113169
