15

C	1.128186	0.006056	-0.230705
N	2.559519	-0.038367	-0.221358
C	3.26715	-1.214664	0.265459
C	4.616467	-0.643753	0.635317
C	5.74125	-1.300285	0.956555
C	4.395008	0.795308	0.546185
N	3.219744	1.08795	0.093296
H	0.732174	-0.816763	-0.845339
H	0.808786	0.959165	-0.672271
H	0.68711	-0.074677	0.78468
H	3.314338	-2.009165	-0.496872
H	2.756955	-1.631276	1.158934
H	5.784231	-2.391849	0.98171
H	6.653088	-0.754234	1.208555
H	5.112353	1.579542	0.790605
