11

O	1.062674	-0.081105	0.142953
C	2.394167	-0.005438	0.031726
C	3.081063	1.225302	-0.026849
N	4.395968	1.27615	-0.137895
C	5.049952	0.11588	-0.191993
C	4.36412	-1.095956	-0.132752
N	3.04067	-1.156227	-0.02136
H	0.69042	0.8074	0.173128
H	2.533961	2.177057	0.018511
H	6.140108	0.148989	-0.285504
H	4.904219	-2.048683	-0.177174
