16

N	0.941387	0.040428	-0.158649
C	2.363396	0.013752	0.149516
C	3.06838	1.234436	-0.441051
O	3.202987	1.150175	-1.831502
C	4.024415	0.097971	-2.23968
C	3.775557	-1.17927	-1.499826
C	2.99983	-1.227839	-0.41522
H	0.464917	0.727873	0.422545
H	0.513266	-0.860127	0.045957
H	2.572607	0.021143	1.243821
H	2.488082	2.147406	-0.235571
H	4.059815	1.346627	0.047657
H	5.101945	0.369854	-2.143201
H	3.839804	-0.05147	-3.317098
H	4.265971	-2.08041	-1.882728
H	2.810381	-2.180696	0.091411
