15

C	0.95839	0.3559	-0.323124
C	2.368887	0.062811	0.105937
N	3.110888	-1.045949	-0.460771
C	3.503134	0.314886	-0.825449
C	4.82001	0.768555	-0.347335
N	5.470072	1.635013	-1.014567
O	6.659021	1.965917	-0.424839
H	0.67015	1.385259	-0.059564
H	0.247848	-0.32758	0.167806
H	0.843706	0.241443	-1.413232
H	2.559865	0.205488	1.17822
H	2.591181	-1.479608	-1.22355
H	3.242046	0.69684	-1.819841
H	5.214676	0.347654	0.590372
H	7.037178	2.60935	-1.032762
