16

C	1.070594	0.030769	0.098546
C	2.575549	-0.075664	0.056713
O	3.119902	1.21159	-0.043459
C	4.520487	1.253903	-0.080543
C	4.913747	2.712867	-0.0145
O	4.415796	3.314224	1.144505
H	0.610837	-0.965515	0.169709
H	0.694803	0.524325	-0.810018
H	0.74948	0.624675	0.967453
H	2.896391	-0.69531	-0.80684
H	2.957904	-0.584126	0.966753
H	4.915366	0.776513	-1.001528
H	4.946665	0.712348	0.789155
H	4.549801	3.217658	-0.933372
H	6.012084	2.801217	-0.004345
H	3.486765	3.053346	1.190321
