16

C	2.631248	-0.55833	1.249247
C	2.350944	0.192323	-0.052179
C	2.891336	1.600196	-0.05301
C	2.0838	2.657571	0.145597
C	4.329044	1.818589	-0.246802
C	5.24983	0.883744	-0.51861
H	2.238095	-1.58533	1.206197
H	2.155938	-0.048771	2.101038
H	3.709373	-0.616108	1.460247
H	1.264304	0.227382	-0.227765
H	2.779571	-0.364363	-0.903194
H	1.006034	2.535049	0.286294
H	2.478304	3.677359	0.174026
H	4.655451	2.86235	-0.166116
H	4.997034	-0.175599	-0.616434
H	6.299113	1.153838	-0.660446
