16

N	0.960323	-0.012273	-0.36168
C	2.394594	-0.004846	-0.071484
C	2.755693	1.246151	0.679562
C	3.402984	1.260263	1.846238
C	3.83133	0.020323	2.564498
C	3.411958	-1.233437	1.865177
C	2.764665	-1.241658	0.698453
H	0.728032	-0.829942	-0.924344
H	0.721912	0.795581	-0.935843
H	3.007249	-0.009623	-1.005205
H	2.464999	2.19352	0.210996
H	3.637241	2.219011	2.320729
H	4.929617	0.025378	2.707632
H	3.423769	0.026643	3.593425
H	3.652956	-2.183129	2.35425
H	2.480657	-2.198114	0.244445
