20

C	1.062707	-0.246666	0.002445
C	2.492723	-0.132122	-0.50325
C	3.385054	0.708049	0.400864
C	4.822633	0.807771	-0.078816
C	5.781496	1.497889	0.913392
N	6.204507	0.177869	1.378257
C	5.68088	-0.453621	0.168322
H	0.439102	-0.855096	-0.670289
H	0.590118	0.745027	0.090135
H	1.030973	-0.713715	1.000016
H	2.495228	0.303174	-1.51855
H	2.928337	-1.141267	-0.610407
H	3.384243	0.290279	1.423452
H	2.963937	1.72658	0.484883
H	4.852559	1.197819	-1.108753
H	5.320387	2.141625	1.684717
H	6.56561	2.086245	0.395749
H	7.191492	0.048575	1.582879
H	6.425602	-0.614533	-0.636677
H	5.143771	-1.405653	0.332032
