16

C	0.945863	-0.516107	-0.861565
N	2.054846	-0.536571	0.061592
C	2.522885	-1.840258	0.467683
C	2.732988	0.56968	0.506448
O	3.647558	0.487268	1.310257
C	2.31626	1.899058	-0.040728
C	2.862261	3.01194	0.452903
H	0.314945	0.370708	-0.722575
H	0.308896	-1.392812	-0.669669
H	1.266646	-0.559866	-1.91921
H	1.73368	-2.392737	1.006627
H	3.385105	-1.706853	1.131312
H	2.827195	-2.440543	-0.40788
H	1.592743	1.962646	-0.856363
H	3.597341	2.937895	1.260198
H	2.597539	3.999561	0.06831
