23

C	0.929001	-0.070296	-0.008807
C	2.448296	-0.021114	0.011487
C	3.01001	1.393909	-0.005081
C	4.530587	1.453359	0.01224
C	5.092101	2.867529	0.000584
C	6.613663	2.926752	0.013371
C	7.164665	4.343694	0.00503
H	0.553254	-1.104509	0.004678
H	0.525433	0.418221	-0.91075
H	0.500629	0.450545	0.863051
H	2.850422	-0.579759	-0.852811
H	2.826042	-0.549255	0.905508
H	2.611913	1.954907	0.860973
H	2.633119	1.925982	-0.898502
H	4.927976	0.89525	-0.855766
H	4.907132	0.918146	0.903714
H	4.697697	3.425007	0.870595
H	4.713304	3.404458	-0.889109
H	7.004408	2.370348	-0.857743
H	6.989073	2.386657	0.901393
H	6.83259	4.895955	-0.889447
H	8.265419	4.353515	0.013049
H	6.819486	4.911507	0.88464
