19

C	1.314573	0.899991	-0.503374
O	2.649778	0.723811	-0.154072
C	3.386937	1.913146	-0.156068
C	4.796397	1.63186	0.266313
C	5.774003	1.065554	-0.720837
C	5.923946	2.482339	-0.245767
C	7.059184	2.879772	0.659021
H	0.821958	-0.082445	-0.473442
H	1.200169	1.315533	-1.526182
H	0.783126	1.579105	0.194839
H	2.923603	2.657851	0.527582
H	3.384474	2.372318	-1.168963
H	4.887272	1.273472	1.297897
H	5.421633	0.888587	-1.740931
H	6.493383	0.324384	-0.359973
H	5.633494	3.250579	-0.972887
H	7.30365	2.069225	1.363429
H	6.807418	3.772824	1.253488
H	7.970761	3.105474	0.082967
