18

N	1.532499	-0.411751	-0.476392
C	2.800359	0.010384	0.026013
C	3.650463	-1.03747	0.679094
C	4.068388	-0.466461	-0.646372
C	5.082971	0.667545	-0.638775
C	4.252387	1.931947	-0.358233
C	3.054464	1.458735	0.477252
H	1.209782	0.212678	-1.213608
H	0.828259	-0.394441	0.259456
H	3.246771	-2.053027	0.675838
H	4.229338	-0.767166	1.568808
H	3.985663	-1.118156	-1.520865
H	5.844707	0.511371	0.144921
H	5.626524	0.738521	-1.593217
H	4.832124	2.736791	0.120936
H	3.881584	2.332161	-1.316852
H	3.272852	1.509155	1.558401
H	2.157795	2.075164	0.306316
