13

C	1.429942	-0.080976	0.02852
N	2.223359	0.857124	0.807061
N	3.090033	1.604219	0.035215
C	4.274284	1.094135	-0.404411
O	4.629785	-0.046728	-0.188129
C	5.080791	2.061164	-1.148196
C	5.765886	2.845069	-1.767069
H	0.804081	-0.66065	0.722979
H	2.038036	-0.782084	-0.571261
H	0.757407	0.474119	-0.643008
H	2.782008	0.349421	1.4925
H	2.886696	2.591877	-0.070128
H	6.384611	3.531021	-2.317972
