14

N	1.336705	1.989322	-1.402314
C	2.481198	2.162032	-0.694241
O	2.700757	3.05666	0.081927
O	3.357979	1.172779	-0.990727
C	4.607235	1.270188	-0.365181
C	5.683442	0.435424	-0.9627
C	5.71802	1.93608	-1.105433
H	1.186031	1.143692	-1.932076
H	0.555842	2.588331	-1.181225
H	4.546982	1.39994	0.719426
H	5.412451	-0.144515	-1.848696
H	6.392928	-0.056642	-0.292203
H	6.446144	2.514101	-0.530438
H	5.473616	2.351199	-2.08641
