19

C	0.98444	0.220297	-1.007313
C	2.469948	0.206951	-0.859851
C	3.187706	1.124977	-0.203451
C	4.662896	1.154223	-0.065003
C	5.581967	0.360387	-0.94819
C	5.526919	1.853045	-1.090649
C	6.683399	2.716379	-0.666973
H	0.686213	0.254184	-2.068877
H	0.531215	1.085241	-0.499996
H	0.533169	-0.695134	-0.588208
H	2.997415	-0.633632	-1.328302
H	2.65567	1.955764	0.280816
H	5.007477	1.29089	0.968507
H	5.145568	-0.250195	-1.742621
H	6.473383	-0.076719	-0.488672
H	4.979599	2.211713	-1.970592
H	7.175287	2.303273	0.227952
H	6.355783	3.740035	-0.425185
H	7.443843	2.786542	-1.461941
