18

N	0.980905	0.01203	0.04909
C	2.423377	0.024346	0.043249
C	3.116231	1.078631	0.923482
C	4.146096	0.007357	1.329768
C	3.134652	-1.065434	0.867548
C	3.650172	-2.308984	0.177668
O	4.375828	-3.147309	1.037506
H	0.633224	-0.788511	-0.477093
H	0.622621	0.836423	-0.431398
H	2.878521	0.048879	-0.97266
H	2.457262	1.342229	1.764581
H	3.480148	2.001563	0.44665
H	5.038321	0.030376	0.681129
H	4.476845	-0.011556	2.37879
H	2.481154	-1.353187	1.707721
H	4.251016	-2.010494	-0.708895
H	2.805388	-2.908192	-0.202219
H	5.101419	-2.630576	1.403613
