17

C	2.988923	-1.236651	-0.603918
C	2.444205	-0.020085	0.128069
C	3.3558	1.213585	0.053621
C	2.853001	2.391377	0.836288
C	2.78488	3.473106	0.033127
C	3.225945	3.096928	-1.311125
C	3.555681	1.788448	-1.319392
H	2.319599	-2.102666	-0.486241
H	3.978794	-1.527094	-0.216487
H	3.097406	-1.048783	-1.683281
H	2.287401	-0.269553	1.191172
H	1.45409	0.254934	-0.27264
H	4.35055	0.925771	0.455973
H	2.58421	2.341742	1.89276
H	2.456508	4.472987	0.323326
H	3.278747	3.779593	-2.161836
H	3.926411	1.219692	-2.172995
