15

C	0.895045	0.110767	0.608515
C	2.314444	0.182726	0.052196
N	2.371226	-0.087277	-1.352954
N	2.11829	-1.326441	-1.756736
C	2.404741	-1.684122	-2.947392
C	2.940571	1.527699	0.321123
O	3.497449	2.1928	-0.511939
H	0.881933	0.264396	1.698579
H	0.480713	-0.882869	0.388956
H	0.254363	0.86495	0.127591
H	2.942541	-0.534697	0.629012
H	2.997556	0.514254	-1.892934
H	2.156536	-2.70365	-3.252464
H	2.880758	-1.01089	-3.681983
H	2.860845	1.870872	1.38415
