17

C	0.940563	-0.63768	0.247209
N	2.181136	-0.299607	-0.404615
C	2.708306	-1.39404	-1.177265
C	2.101499	0.931112	-1.161045
C	1.90251	2.130465	-0.285243
C	0.965751	3.062615	-0.461575
H	0.594486	0.202236	0.867657
H	1.084212	-1.509573	0.904374
H	0.123616	-0.88274	-0.470732
H	2.832949	-2.281972	-0.537858
H	3.69824	-1.133846	-1.583486
H	2.057769	-1.688073	-2.033817
H	1.308027	0.900246	-1.946341
H	3.060373	1.053312	-1.696673
H	2.61088	2.214287	0.548676
H	0.239209	2.992302	-1.278483
H	0.891454	3.933117	0.195778
