15

O	0.799025	0.083	-0.159065
C	2.130729	0.106908	0.264149
C	2.746579	1.448305	-0.009374
C	2.090647	2.421646	-0.647278
C	4.151024	1.632231	0.440775
C	4.617514	1.260933	1.785705
O	4.922501	0.46437	0.666575
H	0.474417	-0.817816	-0.080998
H	2.754677	-0.652418	-0.247866
H	2.219731	-0.115344	1.3487
H	1.055339	2.277172	-0.959047
H	2.572513	3.378289	-0.867111
H	4.690199	2.446351	-0.063486
H	3.912949	0.829551	2.508631
H	5.459617	1.80937	2.228883
