15

N	2.79001	-1.091094	-0.454404
C	2.159534	0.043521	0.184299
C	3.132796	1.192166	0.261953
O	4.264897	0.901185	1.027265
C	3.393495	2.034431	-0.936028
C	2.644507	2.610963	0.240568
H	2.23639	-1.934688	-0.329047
H	3.688706	-1.257056	-0.003077
H	1.795163	-0.150388	1.220523
H	1.274719	0.357607	-0.394307
H	3.98775	0.877087	1.950736
H	2.845808	1.802307	-1.852636
H	4.42653	2.358366	-1.080068
H	3.182824	3.321776	0.873074
H	1.571481	2.800007	0.142308
