16

C	2.376462	-0.486144	-1.609916
C	2.472533	0.018472	-0.17874
C	3.369419	1.245376	-0.015735
C	3.498143	1.751317	1.423961
O	3.356894	3.174673	1.35259
N	2.880883	3.52784	0.123948
C	2.859529	2.513434	-0.646457
H	1.751297	-1.389166	-1.671714
H	3.370435	-0.740483	-2.0111
H	1.932562	0.267022	-2.279658
H	2.863669	-0.784338	0.469833
H	1.467582	0.261004	0.208506
H	4.360877	1.012041	-0.449841
H	4.464351	1.52401	1.896249
H	2.688834	1.347525	2.060512
H	2.523469	2.635957	-1.677937
