18

N	0.819448	0.341518	-0.232701
C	2.197357	0.25332	-0.680223
C	3.157299	0.424956	0.48718
C	4.607111	0.340381	0.076055
O	5.00295	1.304886	-0.852224
C	5.643675	-0.133246	1.054379
C	5.249482	-0.991746	-0.121738
H	0.183603	0.158048	-1.005762
H	0.613451	1.290461	0.076871
H	2.482003	0.978754	-1.469774
H	2.358699	-0.747512	-1.117226
H	2.932147	-0.331153	1.255553
H	2.98287	1.408692	0.966937
H	5.007087	2.155121	-0.397663
H	5.324562	-0.43673	2.055482
H	6.619095	0.357959	1.00724
H	5.958261	-1.064659	-0.950194
H	4.65465	-1.890829	0.060759
