15

O	0.991457	0.060261	-0.029508
C	2.383353	0.030104	-0.004447
C	2.958554	1.139485	0.861492
C	4.340155	0.587915	1.168752
O	4.177939	-0.825642	1.230757
C	3.014407	-1.19035	0.641027
C	2.541913	-2.437549	0.656153
H	0.681426	-0.647569	-0.603255
H	2.805373	0.123285	-1.029527
H	2.344991	1.208411	1.773596
H	2.974529	2.12175	0.370349
H	5.06591	0.835738	0.372034
H	4.75506	0.932528	2.1271
H	1.589793	-2.663837	0.175051
H	3.07874	-3.242132	1.159715
