14

N	1.24779	1.2015	-1.78571
C	2.49957	1.38039	-1.54949
N	3.27543	0.46844	-0.91348
C	4.51973	0.8899	-0.29036
C	5.68165	-0.05873	-0.20264
C	5.75633	1.1371	-1.10677
H	0.87667	2.0198	-2.28135
H	3.02634	2.30023	-1.85848
H	2.7411	-0.29948	-0.51767
H	4.35551	1.53173	0.57208
H	5.58698	-1.0346	-0.66449
H	6.27683	-0.0498	0.70276
H	6.40087	1.95743	-0.81424
H	5.7098	0.96507	-2.17585
