12

O	1.339403	-0.254531	-0.712461
C	2.582148	-0.09076	-0.090036
C	2.929496	1.362566	-0.063757
C	2.144674	2.366268	-0.565171
S	2.92471	3.877701	-0.327757
C	4.242248	3.048618	0.425262
N	4.112405	1.760383	0.493556
H	1.125122	-1.190983	-0.724746
H	3.396731	-0.627577	-0.617246
H	2.587233	-0.463635	0.954593
H	1.174143	2.266949	-1.045035
H	5.106788	3.598642	0.804948
