15

C	4.274439	-0.372425	1.539923
O	3.863098	0.925992	1.861028
C	3.115981	1.546976	0.862664
C	2.468625	2.795655	1.387913
C	2.691715	3.293866	2.603063
C	4.016691	1.983102	-0.293367
O	3.654237	2.104096	-1.429343
H	4.867225	-0.751306	2.383866
H	4.905058	-0.404576	0.629706
H	3.412047	-1.047878	1.380771
H	2.336508	0.877161	0.441663
H	1.811108	3.303427	0.673928
H	3.353009	2.777766	3.303283
H	2.208127	4.21707	2.9305
H	5.059891	2.225753	0.044462
