15

C	1.234991	-0.510095	-0.260831
C	2.738772	-0.409563	-0.324194
N	3.548587	-1.301472	-0.756824
N	3.240215	0.765906	0.162452
C	4.656288	1.031755	0.090938
C	5.006069	2.264437	0.785942
C	5.288874	3.297487	1.350481
H	0.763592	0.292931	-0.850105
H	0.883996	-0.409437	0.778029
H	0.891335	-1.474143	-0.656656
H	3.038633	-2.134374	-1.046515
H	2.619025	1.54457	0.3275
H	5.005342	1.081916	-0.959195
H	5.198787	0.176023	0.528202
H	5.547994	4.210028	1.854924
