13

C	1.031493	0.049711	0.06607
C	2.525731	-0.07666	-0.00602
C	3.165033	-1.247682	0.137304
C	3.244777	1.185929	-0.247028
N	4.516554	1.242593	-0.337964
O	4.966543	2.508346	-0.560734
H	0.73093	0.73876	0.873219
H	0.551399	-0.921169	0.247129
H	0.624234	0.464462	-0.871394
H	2.613324	-2.173306	0.318122
H	4.254573	-1.301511	0.076793
H	2.655553	2.111469	-0.351505
H	5.922614	2.403	-0.609972
