22

C	2.706428	-1.142853	-0.460725
C	2.542358	-0.265924	0.771787
N	3.19342	1.02375	0.651449
C	2.552787	2.081396	1.409042
C	2.636751	1.980858	2.931483
C	4.63371	0.94764	0.787884
C	5.359114	2.2183	0.379568
H	2.138182	-2.078672	-0.348466
H	3.756361	-1.420153	-0.63792
H	2.341607	-0.61538	-1.354847
H	2.884176	-0.827682	1.671966
H	1.466394	-0.082657	0.927554
H	1.493054	2.110074	1.102711
H	2.972948	3.047417	1.08414
H	2.190392	1.044374	3.302057
H	2.096727	2.815222	3.404788
H	3.677934	2.018216	3.287972
H	4.984039	0.128975	0.140161
H	4.943503	0.659749	1.820021
H	5.034915	2.537846	-0.622913
H	6.445898	2.046464	0.354877
H	5.176341	3.049869	1.07754
