14

N	1.424506	0.44886	0.631018
C	2.453582	-0.053053	-0.275199
C	2.140087	0.352178	-1.68587
C	2.223329	-0.45515	-2.741914
C	3.803425	0.59118	0.117114
O	3.645959	1.714236	0.804892
O	4.862115	0.132639	-0.202863
H	1.387525	-0.095908	1.490306
H	0.50051	0.41539	0.206557
H	2.60574	-1.145655	-0.235694
H	1.860085	1.405517	-1.815066
H	2.521266	-1.50291	-2.638323
H	2.012384	-0.091483	-3.750676
H	2.670985	1.769491	0.95436
