17

C	0.555521	0.780079	0.316574
C	2.042308	0.773015	0.439069
C	2.829519	1.751499	-0.01271
O	4.177431	1.709627	0.117472
C	4.916854	2.7359	-0.367981
C	6.247767	2.758102	-0.273412
C	7.098722	3.866883	-0.79517
H	0.19208	-0.09384	-0.250504
H	0.190779	1.684127	-0.195297
H	0.067207	0.736925	1.30456
H	2.524436	-0.081099	0.926733
H	2.428985	2.643564	-0.51384
H	4.347947	3.546829	-0.843468
H	6.735268	1.90818	0.216037
H	6.496058	4.659491	-1.265279
H	7.819614	3.504957	-1.547987
H	7.693402	4.333193	0.008613
