13

C	1.019578	-0.105949	-0.23243
C	2.484282	0.00319	0.17282
C	3.096637	1.384149	0.032233
C	2.831454	2.130269	-1.254746
O	3.777646	1.860587	0.90847
H	0.645242	-1.125989	-0.060556
H	0.866497	0.123877	-1.297763
H	0.388447	0.580046	0.353456
H	3.093157	-0.674563	-0.453529
H	2.63991	-0.304417	1.217251
H	2.962965	1.479565	-2.133484
H	3.498074	2.9989	-1.318285
H	1.786971	2.481725	-1.270407
