15

C	1.751302	-1.103267	0.88197
C	1.722863	0.340672	0.468256
O	0.706182	0.965733	0.29402
C	3.067332	1.050593	0.322861
O	4.164648	0.207707	0.09564
C	4.304199	-0.317388	-1.137995
C	3.486171	-0.185811	-2.188169
H	2.149379	-1.709552	0.052374
H	0.733977	-1.433485	1.124017
H	2.427	-1.253862	1.737412
H	3.261866	1.554756	1.283813
H	2.970718	1.832089	-0.451111
H	5.223678	-0.907845	-1.192335
H	2.557484	0.388262	-2.165704
H	3.753312	-0.676542	-3.124308
