15

C	0.954924	-0.005799	-0.004414
C	2.467018	0.025423	0.046948
C	3.139439	1.088126	0.910426
O	4.433455	0.586988	1.179377
C	4.326797	-0.793645	1.384962
C	3.085153	-1.239084	0.626292
O	2.66205	-2.359228	0.536159
H	0.617058	-0.917959	-0.517506
H	0.547319	0.866074	-0.536985
H	0.525977	-0.018535	1.00981
H	2.886379	0.101865	-0.975174
H	2.564903	1.234443	1.849909
H	3.246246	2.066755	0.421746
H	5.230348	-1.309653	1.023704
H	4.191125	-1.058261	2.454646
