20

C	0.958596	0.003705	0.000944
C	2.46929	0.0289	0.069762
C	3.17758	1.076123	0.95436
C	4.218868	0.00333	1.324403
C	3.208862	-1.070123	0.862936
C	3.709592	-2.297451	0.133032
N	4.414937	-3.184116	1.037537
H	0.595164	-0.876129	-0.554478
H	0.561753	0.900405	-0.502025
H	0.519637	-0.034913	1.011291
H	2.891856	0.072865	-0.950862
H	2.552843	1.348319	1.820673
H	3.531103	2.004238	0.479006
H	5.093523	0.041192	0.653163
H	4.578157	-0.03291	2.364126
H	2.594033	-1.397096	1.719938
H	4.309237	-1.958185	-0.742677
H	2.841973	-2.839579	-0.283687
H	5.242123	-2.717285	1.406163
H	4.751034	-4.010019	0.547764
