18

C	1.101567	0.092193	0.088115
C	0.707678	0.572008	1.462811
C	-0.372627	-0.127564	2.233373
C	1.056616	-0.237897	2.678308
C	2.510498	0.471962	-0.287927
C	3.670275	-0.39609	0.014587
N	3.146659	-0.303652	-1.339473
H	1.008545	-1.005336	0.026677
H	0.405559	0.502137	-0.664996
H	0.752206	1.660615	1.590875
H	-0.835126	-1.006416	1.774047
H	-1.0603	0.474609	2.833669
H	1.363955	0.284602	3.588375
H	1.568221	-1.19187	2.519375
H	2.707963	1.553761	-0.267766
H	3.511001	-1.35884	0.513552
H	4.627318	0.080547	0.257259
H	3.740902	0.282771	-1.922329
