17

C	2.629596	-0.354258	1.595419
C	2.665723	0.089563	0.141534
N	3.122218	1.455645	-0.030088
C	2.182172	2.533238	0.142753
C	4.463088	1.6603	-0.24845
N	4.837633	2.977137	-0.443378
O	5.279543	0.755839	-0.238613
H	2.257232	-1.386799	1.68023
H	1.97353	0.290122	2.202329
H	3.642829	-0.317177	2.021878
H	1.668373	-0.000849	-0.322485
H	3.350929	-0.556179	-0.424529
H	1.793589	2.92886	-0.816117
H	2.630303	3.365205	0.707651
H	1.317881	2.178491	0.72228
H	4.194084	3.622378	-0.882042
H	5.798267	3.062524	-0.749392
