20

C	0.963772	-0.058543	0.291995
C	2.483647	-0.058561	0.330583
C	3.112826	1.281794	-0.047097
N	2.687915	2.406942	0.781139
C	4.65183	1.272797	-0.014587
C	5.287609	0.34604	-1.029721
O	5.111782	2.571058	-0.252987
H	0.55303	-1.042676	0.562886
H	0.589495	0.191093	-0.71442
H	0.540569	0.676304	0.994772
H	2.864854	-0.839389	-0.346904
H	2.833853	-0.338173	1.341843
H	2.826203	1.532551	-1.085518
H	2.698857	2.153913	1.769253
H	1.745485	2.713279	0.558173
H	4.951178	0.93291	1.006697
H	4.938361	0.595742	-2.044284
H	5.066794	-0.711484	-0.823655
H	6.378982	0.47987	-1.008458
H	4.429519	3.13007	0.161699
