17

C	0.977704	0.055765	0.159771
C	2.460943	-0.095231	-0.047192
O	3.229212	0.931354	0.58868
C	4.155632	-0.012292	1.139206
C	5.509131	0.029915	0.468924
C	3.232028	-1.182149	0.7236
O	3.743743	-2.283317	0.055159
H	0.43798	-0.786946	-0.299157
H	0.614776	0.988531	-0.297548
H	0.742387	0.087295	1.234368
H	2.688258	-0.148487	-1.134185
H	4.267056	0.131818	2.229046
H	5.418213	-0.062105	-0.625532
H	6.151754	-0.784086	0.838438
H	6.006247	0.989645	0.674549
H	2.651888	-1.569431	1.574945
H	4.22364	-1.976899	-0.721892
