20

C	1.269385	0.805173	0.228285
C	2.666663	0.487175	-0.269361
N	3.541431	1.630179	-0.150118
C	4.896988	1.403209	-0.598611
C	5.751378	2.65275	-0.465173
C	5.226309	3.830567	-1.259786
O	6.10164	4.913419	-1.072189
H	0.594152	-0.05382	0.097176
H	0.853889	1.66687	-0.315228
H	1.278571	1.058091	1.301579
H	2.622412	0.202244	-1.335581
H	3.05722	-0.411158	0.262315
H	3.550755	1.961201	0.813645
H	4.856801	1.098924	-1.660836
H	5.394241	0.561494	-0.065409
H	6.781489	2.436248	-0.791966
H	5.825561	2.95352	0.595417
H	4.19604	4.058583	-0.926637
H	5.153166	3.538816	-2.329267
H	5.735419	5.679573	-1.522404
