13

C	0.978845	0.031003	-0.008536
N	2.414992	-0.028018	0.000392
C	3.275769	1.016371	0.004043
N	4.532007	0.634317	0.010046
C	4.490744	-0.717201	0.010253
O	5.644712	-1.407606	0.016057
C	3.185883	-1.174501	0.004336
H	0.662196	1.082066	-0.001699
H	0.556498	-0.46508	0.879258
H	0.567441	-0.450456	-0.909525
H	2.925959	2.049634	0.002118
H	5.444669	-2.348426	0.015512
H	2.750855	-2.170652	0.002583
