17

C	0.958532	0.135834	-0.11001
C	2.437109	-0.00627	-0.025296
C	3.194047	-1.112331	-0.042685
C	2.788266	-2.539619	-0.151392
C	4.636872	-0.712322	0.072509
O	4.647997	0.691316	0.155794
C	3.334546	1.190917	0.101115
H	0.451023	-0.835396	-0.185424
H	0.667712	0.739842	-0.986668
H	0.560127	0.658338	0.776658
H	3.238208	-3.012585	-1.041022
H	1.697887	-2.657067	-0.221711
H	3.136732	-3.118842	0.720942
H	5.115511	-1.160085	0.969223
H	5.228702	-1.055996	-0.80234
H	3.216478	1.883837	-0.758763
H	3.103981	1.781348	1.01318
