14

O	2.722263	0.654552	-2.263077
C	2.182043	1.007816	-1.240118
N	2.820469	1.283468	-0.074203
C	4.255603	1.272637	0.037182
C	4.867674	2.678901	0.005642
C	4.375605	3.52643	1.084958
C	3.9332	4.189949	1.99748
H	1.075114	1.131317	-1.150818
H	2.280855	1.664184	0.694038
H	4.637417	0.690658	-0.813477
H	4.551751	0.759095	0.966431
H	4.641123	3.149438	-0.966227
H	5.966031	2.5984	0.071116
H	3.559343	4.796954	2.80145
