20

C	0.705022	0.099147	0.752722
C	2.222843	0.029629	0.73674
C	2.905008	1.336726	0.313487
N	2.612307	2.482753	1.159262
C	4.427657	1.172824	0.226934
C	4.882108	0.199956	-0.811853
C	5.625604	-0.88579	-0.593255
H	0.258314	-0.860296	1.054055
H	0.305287	0.3514	-0.243425
H	0.340905	0.862391	1.459163
H	2.55362	-0.77865	0.063324
H	2.598991	-0.244562	1.740527
H	2.542193	1.592092	-0.701238
H	2.85724	2.27118	2.126949
H	1.617002	2.692602	1.15532
H	4.819894	0.878943	1.217305
H	4.841272	2.171983	0.007517
H	4.563359	0.421388	-1.839823
H	5.965712	-1.149161	0.413849
H	5.928413	-1.548023	-1.40881
