16

N	1.922284	-0.785144	-1.083164
C	2.918355	-0.439391	-0.086447
C	2.897608	1.031545	0.188404
C	3.962013	1.834311	0.132054
C	3.928466	3.312444	0.410919
C	4.834735	3.71299	1.484294
C	5.590775	4.031147	2.375127
H	1.856929	-1.793987	-1.196115
H	2.18491	-0.403514	-1.989847
H	3.958077	-0.748314	-0.329257
H	2.655007	-0.968936	0.847762
H	1.912426	1.445528	0.439327
H	4.943009	1.415969	-0.126077
H	2.901011	3.625142	0.662172
H	4.205903	3.870476	-0.502758
H	6.25861	4.312755	3.167955
