14

N	1.168542	-0.084094	0.170389
C	2.521016	0.030064	0.029605
C	3.257036	-1.231779	-0.155294
C	2.780085	-2.442841	0.158089
C	3.146324	1.248028	0.103805
C	4.576489	1.474779	0.090841
O	5.09096	2.571857	0.161791
H	0.624719	0.766455	0.227027
H	0.706351	-0.869377	-0.267797
H	4.260244	-1.149212	-0.576758
H	1.800592	-2.582367	0.624346
H	3.375862	-3.34174	-0.015579
H	2.539682	2.153896	0.208291
H	5.221608	0.562201	0.007865
