15

C	2.490861	-1.072981	0.59485
C	2.083533	0.163896	0.266841
C	2.930556	1.329622	0.129326
C	2.526391	2.589006	-0.197827
C	3.67534	3.481711	-0.237097
C	4.791475	2.781671	0.064792
C	4.420437	1.355827	0.322219
H	1.78297	-1.900613	0.6778
H	3.542592	-1.300342	0.793249
H	1.01698	0.335654	0.079205
H	1.495499	2.886713	-0.401473
H	3.627887	4.545545	-0.476007
H	5.809903	3.168495	0.117546
H	4.933709	0.665644	-0.371826
H	4.706948	1.030263	1.33855
