21

C	0.88813	-0.901317	0.1674
C	2.023917	-0.149349	-0.526745
C	2.693104	-1.010675	-1.603592
N	3.31189	-2.182765	-1.015434
N	1.676643	1.162173	-1.060737
C	0.619062	1.183363	-2.038403
C	1.50694	2.180073	-0.05887
H	0.479156	-0.331673	1.015906
H	1.261714	-1.865621	0.537325
H	0.063683	-1.109587	-0.533142
H	2.807202	0.04439	0.230214
H	3.38184	-0.348376	-2.168384
H	1.929888	-1.357061	-2.321901
H	4.148639	-1.920065	-0.497759
H	3.611336	-2.834713	-1.735447
H	0.794724	0.434811	-2.824898
H	0.590619	2.168929	-2.531058
H	-0.395222	0.999406	-1.618137
H	2.371831	2.191691	0.623735
H	0.588627	2.063347	0.560953
H	1.448937	3.171727	-0.536926
