14

C	0.937818	-0.162814	-0.085109
C	2.407296	0.059811	-0.119758
C	3.077576	1.222749	0.00599
C	2.497293	2.583761	0.214396
C	4.551642	1.1528	-0.067934
O	5.283147	2.107872	0.025894
H	0.673132	-0.860851	0.727373
H	0.597068	-0.63862	-1.020412
H	0.364661	0.762514	0.057071
H	3.019292	-0.841188	-0.267099
H	1.399751	2.582605	0.232551
H	2.839146	3.26696	-0.578908
H	2.865586	3.011375	1.160306
H	4.963063	0.119916	-0.223451
