19

C	1.148073	2.403646	-1.145753
O	2.526228	2.223647	-1.2077
C	3.064799	1.603444	-0.074866
C	4.570004	1.528874	-0.225058
C	5.215092	2.887411	-0.330361
C	5.57039	3.653056	0.911279
C	6.65336	3.081326	0.039657
H	0.825412	2.891034	-2.077233
H	0.848593	3.046632	-0.292651
H	0.603899	1.441902	-1.049897
H	2.638749	0.585134	0.050523
H	2.804671	2.176067	0.841623
H	4.803247	0.931973	-1.123633
H	4.98451	0.980573	0.638225
H	4.839264	3.481158	-1.170083
H	5.386653	3.17301	1.87789
H	5.423319	4.736579	0.91885
H	7.259601	3.76744	-0.55836
H	7.203426	2.212584	0.414626
