13

C	0.913575	0.008828	-0.04146
C	2.397545	0.022238	-0.120938
C	3.181629	1.067335	0.184901
C	4.653378	1.062181	0.098549
O	5.319578	2.034705	0.386951
C	5.299957	-0.172331	-0.354003
C	5.861393	-1.18076	-0.725561
H	0.569785	-0.785004	0.642787
H	0.475259	-0.225035	-1.026183
H	0.50641	0.969601	0.303505
H	2.882262	-0.903103	-0.458805
H	2.764491	2.019642	0.528357
H	6.372938	-2.068107	-1.05321
