15

N	2.181258	-0.390073	-1.379474
C	2.407806	0.036714	-0.013734
C	3.215127	1.319627	0.01353
C	2.474591	2.556256	-0.50803
O	2.3788	3.107699	0.806554
C	3.207926	2.082944	1.34453
H	1.543888	-1.182197	-1.412067
H	3.052611	-0.703857	-1.803571
H	2.909997	-0.714698	0.635344
H	1.42783	0.237962	0.45435
H	4.213137	1.15316	-0.423796
H	1.491354	2.353523	-0.966987
H	3.057151	3.20229	-1.190441
H	4.193167	2.46516	1.670093
H	2.738347	1.55938	2.198289
