13

C	5.38901	-2.088836	0.010262
C	4.633474	-1.142404	0.010264
C	3.741013	0.010013	0.012716
C	4.473579	1.33135	0.100974
C	4.914292	2.055759	-1.108839
N	3.740809	2.49242	-0.364971
H	6.055357	-2.931462	0.009009
H	3.036864	-0.072643	0.859524
H	3.12207	0.013832	-0.900131
H	5.104397	1.437496	0.993285
H	4.711381	1.629864	-2.097981
H	5.838487	2.642069	-1.05193
H	3.947579	3.311781	0.202999
