16

C	0.945519	0.180392	-0.379465
N	2.342261	0.34823	-0.060955
C	3.278464	-0.605153	-0.571052
C	3.224277	0.790165	-1.115552
C	4.277649	1.812397	-0.804995
C	4.605256	2.048259	0.644995
O	4.816403	2.410984	-1.706811
H	0.432861	1.151018	-0.306853
H	0.484413	-0.503958	0.348637
H	0.770659	-0.227672	-1.397024
H	2.916452	-1.39349	-1.24529
H	4.089473	-0.912623	0.099169
H	2.826624	0.887732	-2.135179
H	3.706441	2.407541	1.168931
H	5.417044	2.782271	0.719365
H	4.894815	1.112417	1.147398
