12

C	0.966802	0.041071	-0.005087
C	2.451232	-0.012353	-0.001491
N	3.195814	1.06502	4e-05
O	4.488407	0.653654	0.003452
C	4.542185	-0.688096	0.003178
C	3.271492	-1.182204	0.000302
O	2.775464	-2.432422	-0.000785
H	0.629355	1.085123	0.000177
H	0.555695	-0.473699	0.876742
H	0.56035	-0.462758	-0.895418
H	5.531111	-1.141213	0.005553
H	3.494774	-3.071834	0.001327
