14

C	1.464997	-0.399427	-0.112592
N	2.870676	-0.075309	-0.147724
C	3.154603	1.332194	-0.045436
C	4.663271	1.552706	0.073506
C	5.02601	2.956742	0.210736
N	5.294313	4.077675	0.314631
H	1.327983	-1.485115	-0.226211
H	0.853736	0.106357	-0.891138
H	1.04106	-0.118156	0.865547
H	3.29675	-0.456249	-0.990039
H	2.665187	1.724227	0.862528
H	2.758414	1.939552	-0.890332
H	5.179569	1.151545	-0.815721
H	5.045341	0.989629	0.940105
