19

C	1.047284	0.001603	0.070111
C	2.555785	-0.001606	-0.070614
C	3.19648	1.04257	-1.027408
C	2.880394	0.057828	-2.176586
C	3.185825	-0.995153	-1.086473
C	4.682775	-0.768878	-0.849533
C	4.690981	0.787283	-0.804758
H	0.713264	0.871818	0.657702
H	0.704236	-0.902468	0.598469
H	0.524595	0.035661	-0.896709
H	3.008825	-0.033058	0.938167
H	2.859014	2.089919	-1.047169
H	3.52857	0.0804	-3.068852
H	1.829248	0.072381	-2.492485
H	2.837382	-2.036055	-1.166329
H	5.027936	-1.225163	0.091388
H	5.300418	-1.177084	-1.664591
H	5.312677	1.235148	-1.595435
H	5.041212	1.185182	0.160485
