18

N	0.765939	0.968505	0.557704
C	1.747881	0.818765	-0.497499
C	3.060092	1.431392	-0.090953
C	4.054748	1.882337	-1.113112
C	3.308975	2.910052	-0.312222
C	3.948786	3.73358	0.740038
C	5.258824	3.861208	0.962456
H	-0.123299	0.555366	0.286192
H	0.587864	1.956848	0.728307
H	1.450921	1.255461	-1.477856
H	1.899337	-0.259781	-0.68001
H	3.46877	1.028536	0.84239
H	3.792069	1.778328	-2.170231
H	5.114565	1.722479	-0.899333
H	2.498669	3.423107	-0.847045
H	3.251102	4.265341	1.399974
H	6.002678	3.36833	0.329353
H	5.63661	4.467576	1.789748
