17

C	0.997903	-0.156478	0.12379
C	2.504333	-0.060289	-0.090394
N	2.976026	-0.838569	-1.239667
C	2.977322	1.385784	-0.228669
C	4.493726	1.528974	-0.312302
O	5.036401	0.960694	-1.464101
H	0.681683	0.378285	1.033023
H	0.677628	-1.206009	0.222173
H	0.45533	0.284702	-0.729337
H	3.009897	-0.486266	0.796404
H	2.469007	-0.55545	-2.079445
H	2.783685	-1.830111	-1.108139
H	2.599543	1.967702	0.629008
H	2.525054	1.8304	-1.134911
H	4.936311	1.098403	0.61493
H	4.758302	2.600293	-0.305518
H	4.603807	0.088065	-1.543614
