16

C	3.158408	-1.209734	0.273345
C	2.44655	0.123507	0.117457
O	1.230919	0.150594	0.023747
C	3.219129	1.37301	0.079117
C	2.409459	2.625614	-0.073184
C	4.576454	1.358433	0.173193
N	5.410315	2.429925	0.174792
H	3.716078	-1.259468	1.221282
H	3.870872	-1.389919	-0.546479
H	2.39767	-1.999817	0.265337
H	1.634977	2.680804	0.707409
H	1.871413	2.633566	-1.034613
H	3.013404	3.54333	-0.012447
H	5.095134	0.402745	0.289186
H	5.056944	3.344784	-0.066698
H	6.402305	2.288607	0.060656
