19

C	3.25925	-1.124947	-0.057601
C	2.442078	-0.121106	0.743123
C	2.893514	1.332537	0.605252
C	1.927509	2.263323	1.327552
N	4.238915	1.482694	1.128331
C	4.8936	2.7309	0.823021
H	2.829245	-2.135442	0.017845
H	4.299498	-1.20193	0.298224
H	3.289481	-0.855074	-1.126086
H	2.461226	-0.386882	1.814622
H	1.387823	-0.181025	0.425713
H	2.857157	1.588612	-0.483133
H	1.925972	2.041754	2.40658
H	0.90487	2.140523	0.939289
H	2.20255	3.320943	1.198934
H	4.814795	0.714373	0.797837
H	4.432399	3.565245	1.374722
H	4.87843	3.004033	-0.256277
H	5.945306	2.686349	1.143665
