17

C	0.924792	-0.020815	-0.002732
C	2.41381	0.018024	0.001914
C	3.241257	1.095771	0.00531
C	2.882469	2.54414	0.005661
C	4.631626	0.618989	0.009019
C	4.657206	-0.728041	0.00788
C	3.249249	-1.230206	0.003269
H	0.484475	0.985796	-0.001351
H	0.531783	-0.556983	0.87853
H	0.537164	-0.552135	-0.889328
H	1.795377	2.703948	0.000999
H	3.302505	3.057079	-0.875812
H	3.294591	3.054703	0.892273
H	5.501404	1.280349	0.012221
H	5.540768	-1.36745	0.009976
H	3.037355	-1.863713	-0.879217
H	3.032158	-1.865226	0.883407
