12

N	0.946158	-0.103766	0.11738
C	2.102483	-0.061778	0.092903
C	3.56499	0.012333	0.044519
C	4.273448	1.098686	0.88799
C	5.266226	-0.014281	1.265148
N	4.28096	-0.999895	0.814082
H	3.858525	0.080864	-1.022821
H	3.657559	1.426022	1.735424
H	4.653556	1.973261	0.344848
H	6.189455	0.028556	0.655732
H	5.553291	-0.098684	2.325744
H	4.611987	-1.815487	0.305333
