19

C	0.826691	0.859161	1.061513
C	2.314484	0.802697	0.953922
C	3.04486	1.375634	-0.007642
C	4.542421	1.328582	-0.103421
C	5.160504	2.69267	-0.001043
C	5.876843	3.289754	-0.958302
C	6.48137	4.651613	-0.866719
H	0.384958	-0.151214	1.038571
H	0.38038	1.444498	0.243685
H	0.511667	1.312858	2.016656
H	2.83812	0.236666	1.737142
H	2.535415	1.952081	-0.791993
H	4.84257	0.867917	-1.061543
H	4.935256	0.678515	0.698572
H	4.975077	3.230668	0.93864
H	6.046542	2.743807	-1.896946
H	6.266928	5.128531	0.101716
H	6.099839	5.312205	-1.663693
H	7.576746	4.611956	-0.992933
