17

C	1.097906	-0.240257	0.146463
O	2.476745	-0.057352	0.086193
C	2.863871	1.282856	0.086191
C	4.382839	1.334773	0.012887
C	4.90349	2.695344	0.005917
C	5.312834	3.836603	0.001212
C	5.809896	5.2037	-0.003024
H	0.89792	-1.321038	0.138307
H	0.576983	0.219107	-0.718313
H	0.658638	0.190224	1.069572
H	2.511707	1.802562	1.002138
H	2.425048	1.827409	-0.776271
H	4.705551	0.794747	-0.893702
H	4.7919	0.770777	0.868461
H	5.006137	5.919013	-0.238606
H	6.605433	5.336789	-0.753381
H	6.225833	5.481374	0.978487
