19

C	0.941101	-0.071253	0.133945
C	2.46082	-0.03273	0.012281
C	2.913709	-0.775466	-1.240242
C	3.00031	1.418489	0.030395
C	2.559764	2.220449	1.25998
C	4.460092	1.445036	-0.078843
C	5.669444	1.478052	-0.147747
H	0.580653	0.334437	1.090048
H	0.574776	-1.106483	0.060099
H	0.467361	0.506065	-0.678189
H	2.894197	-0.542966	0.892543
H	2.495195	-0.30421	-2.145683
H	2.56991	-1.820641	-1.221729
H	4.009207	-0.7764	-1.337449
H	2.599451	1.922907	-0.870827
H	2.870446	1.710741	2.185413
H	1.468685	2.34992	1.283336
H	3.018497	3.218833	1.256129
H	6.741402	1.509051	-0.210589
