17

O	1.13175	0.0137	-0.298069
C	2.504378	0.011193	-0.051114
C	2.954468	1.169277	0.821196
C	4.306237	0.707591	1.414204
C	4.394312	-0.813056	1.153113
C	2.981087	-1.205646	0.734276
O	2.826597	-2.416562	0.043831
H	0.912457	-0.871755	-0.614981
H	3.082119	0.025804	-1.006567
H	2.195444	1.297546	1.609529
H	3.017206	2.121295	0.275658
H	5.151497	1.234237	0.947845
H	4.35903	0.934004	2.489073
H	5.080099	-1.023709	0.31249
H	4.760715	-1.392263	2.012772
H	2.330126	-1.287029	1.623123
H	3.447678	-2.416466	-0.69446
