12

C	2.039976	-0.180509	-0.124341
C	0.682255	-0.777886	0.149115
O	-0.425469	-1.337057	-0.511965
C	-1.412213	-0.445366	-0.163858
N	-1.354299	0.723773	0.377628
O	-0.124657	1.362961	0.594786
C	0.770235	0.640939	-0.196933
H	2.557365	-0.24367	-1.085754
H	2.699717	-0.21691	0.747213
H	0.572127	-0.923298	1.231406
H	-2.417597	-0.834932	-0.344904
H	0.535951	0.809724	-1.258422
