20

C	1.451977	-0.276696	-0.307613
N	2.799921	0.189575	-0.107545
C	2.953259	1.619923	-0.213339
C	4.404032	2.032989	0.016127
C	4.643024	3.51787	-0.047385
C	3.984997	4.349267	1.015385
C	5.407632	4.064642	-1.000207
H	1.418031	-1.375674	-0.251222
H	0.993717	0.03047	-1.27486
H	0.797629	0.109283	0.492222
H	3.432125	-0.273485	-0.756726
H	2.304829	2.087029	0.549237
H	2.610618	2.030713	-1.192452
H	5.040515	1.52845	-0.730448
H	4.710109	1.645688	1.00427
H	2.885611	4.310462	0.933142
H	4.288899	5.403906	0.956168
H	4.237848	3.971426	2.020616
H	5.882137	3.451274	-1.771841
H	5.589619	5.142738	-1.040089
