14

C	0.94384	-0.013382	0.079244
C	2.455458	0.020979	0.021789
C	3.189651	1.086579	0.878553
C	4.129138	-0.018544	1.34714
O	5.195746	-0.02674	1.887126
C	3.234497	-1.102326	0.757127
H	0.540548	-0.880656	-0.466572
H	0.504023	0.893971	-0.363637
H	0.591833	-0.081146	1.122061
H	2.793808	0.086052	-1.025088
H	2.573667	1.457824	1.716282
H	3.654098	1.951183	0.380034
H	3.733049	-1.886714	0.167095
H	2.635194	-1.588309	1.546867
