17

C	0.917889	-0.001613	0.057475
C	2.429398	0.007672	0.037752
C	3.184658	1.052609	0.8844
C	4.238176	-0.033379	1.242237
C	3.196121	-1.096618	0.794231
C	5.439215	0.008364	0.424061
C	6.438414	0.043175	-0.261534
H	0.514118	-0.870661	-0.486272
H	0.503874	0.905667	-0.41095
H	0.537504	-0.047571	1.091409
H	2.794488	0.053374	-1.002146
H	2.608204	1.341579	1.777489
H	3.551456	1.961845	0.386624
H	4.531496	-0.076553	2.304098
H	3.571964	-1.957481	0.22256
H	2.622422	-1.463481	1.659958
H	7.325862	0.074924	-0.865752
