16

C	6.066997	0.358454	0.369702
O	5.870239	1.645989	-0.159391
N	4.561565	2.008868	-0.055259
C	4.322345	3.170358	-0.518611
C	2.93784	3.730964	-0.482473
C	1.853109	2.705054	-0.168042
O	1.998232	2.122633	1.091651
H	7.133646	0.135239	0.234094
H	5.465278	-0.394886	-0.165778
H	5.819931	0.319684	1.444668
H	5.148316	3.77007	-0.933151
H	2.729326	4.214741	-1.453
H	2.910541	4.540786	0.270434
H	1.840525	1.946166	-0.9785
H	0.872826	3.207952	-0.188239
H	2.860355	1.680657	1.070393
