15

C	0.964015	-0.021751	-0.099533
C	2.416574	-0.010508	-0.023824
C	3.627153	-0.007727	0.042452
C	5.086481	0.025277	0.115244
C	5.647035	1.417007	0.04721
N	6.443351	1.838104	0.94585
N	6.89743	3.101447	0.898586
H	0.557919	1.001837	-0.116856
H	0.523565	-0.538803	0.767872
H	0.612972	-0.535627	-1.008673
H	5.499188	-0.584008	-0.711409
H	5.440138	-0.434442	1.052449
H	5.331946	2.052557	-0.803408
H	7.768275	3.212749	1.40244
H	6.898236	3.561129	-0.013883
