17

C	1.026456	0.102961	0.168524
C	2.525581	-0.036009	0.02858
O	3.159593	1.038	0.696644
C	4.438728	0.60377	1.083024
C	4.230376	-0.833746	1.555302
C	3.126941	-1.293794	0.638131
C	2.748978	-2.54675	0.387292
H	0.50838	-0.703687	-0.36968
H	0.694614	1.066435	-0.244882
H	0.742909	0.060277	1.230183
H	2.79972	-0.010788	-1.049432
H	5.144922	0.631218	0.22632
H	4.817602	1.283709	1.860036
H	5.131948	-1.461697	1.503985
H	3.871375	-0.836047	2.598888
H	1.924566	-2.768223	-0.297248
H	3.24754	-3.398879	0.856413
