21

C	1.805034	-0.922422	-0.388488
O	3.043962	-0.310403	-0.228744
C	2.979929	1.086013	-0.19982
C	4.383735	1.632792	-0.050259
C	4.473621	3.148043	0.133799
C	5.915209	3.562225	0.412391
C	3.913343	3.919575	-1.058634
H	1.961235	-2.010881	-0.402867
H	1.311328	-0.627978	-1.337683
H	1.106996	-0.679383	0.43906
H	2.344067	1.431916	0.64557
H	2.501085	1.468267	-1.125974
H	4.976175	1.326824	-0.931093
H	4.842135	1.127913	0.816805
H	3.869642	3.413337	1.022909
H	6.564467	3.319414	-0.44565
H	6.322003	3.041708	1.293289
H	5.99397	4.645657	0.59372
H	4.453703	3.653379	-1.982783
H	4.021336	5.006059	-0.912427
H	2.845213	3.715474	-1.22644
