18

C	0.939281	-0.090474	0.020498
C	2.466337	-0.052726	-0.032455
N	3.021985	-0.73997	-1.182798
C	3.01137	1.39227	-0.004627
C	2.487559	2.219224	1.173495
C	4.474704	1.40732	-0.016568
C	5.683946	1.461001	0.021891
H	0.528491	0.30326	0.962314
H	0.587688	-1.12891	-0.081672
H	0.505929	0.49257	-0.810491
H	2.86052	-0.55804	0.868402
H	2.658134	-0.334387	-2.044771
H	2.739989	-1.717608	-1.183463
H	2.669768	1.877547	-0.941128
H	2.729644	1.727523	2.128856
H	1.398365	2.356145	1.117399
H	2.9538	3.21383	1.182067
H	6.75702	1.498144	0.047681
