13

C	1.082895	0.199999	0.006615
C	2.572483	0.103463	-9.4e-05
C	3.494471	1.133757	-0.001002
C	3.204805	2.59668	0.004674
N	4.78957	0.701887	-0.007181
N	4.952411	-0.55307	-0.01108
S	3.444691	-1.361064	-0.007185
H	0.605499	-0.788349	-0.002254
H	0.723025	0.753965	-0.874777
H	0.729684	0.734647	0.902543
H	2.125344	2.795786	-0.004007
H	3.655446	3.08403	-0.873404
H	3.638666	3.074469	0.896553
