20

C	1.003025	-0.154618	-0.055988
C	2.513035	-0.003481	0.015738
C	2.959966	1.442364	0.001125
O	4.354401	1.494348	0.070002
C	4.884792	2.790947	0.081121
C	6.390902	2.682594	0.029875
N	6.794069	2.072263	-1.218808
H	0.704719	-1.213052	-0.041672
H	0.595799	0.290524	-0.978416
H	0.506237	0.340019	0.794441
H	2.995076	-0.521911	-0.830109
H	2.908503	-0.476084	0.930466
H	2.50582	1.989575	0.856206
H	2.594447	1.947678	-0.9193
H	4.566377	3.338735	0.992854
H	4.52792	3.364505	-0.798878
H	6.71989	2.139315	0.942278
H	6.811499	3.700239	0.098358
H	6.341582	1.162554	-1.292771
H	7.796801	1.903829	-1.233921
