18

O	2.475154	1.661764	3.082774
C	2.724762	2.521956	1.999973
C	3.108246	1.675286	0.804877
C	3.387213	2.486469	-0.447656
N	4.469512	3.425427	-0.242197
C	5.810357	2.944932	-0.469009
C	5.170125	3.903164	-1.405053
H	2.287915	2.198242	3.85796
H	3.542031	3.237515	2.21093
H	1.830532	3.129013	1.74126
H	2.296973	0.956234	0.604796
H	3.99602	1.076029	1.071665
H	2.490546	3.065967	-0.729579
H	3.596933	1.796265	-1.294985
H	5.934304	1.912086	-0.823522
H	6.577445	3.278154	0.238544
H	5.452743	4.96172	-1.406194
H	4.86839	3.510086	-2.386133
