18

C	0.981874	-0.011841	0.07279
C	2.499258	0.007646	-0.060147
C	3.027898	-1.310919	-0.633313
O	2.665841	-1.458142	-1.983771
C	3.187747	-0.424018	-2.781156
C	2.701193	0.935317	-2.295624
N	2.939216	1.140926	-0.876138
H	0.614502	0.977633	0.379374
H	0.66774	-0.755156	0.820949
H	0.504744	-0.284447	-0.880009
H	2.934787	0.145863	0.944885
H	2.618737	-2.179928	-0.094359
H	4.134894	-1.3378	-0.53024
H	4.300211	-0.450708	-2.757269
H	2.869533	-0.621407	-3.816923
H	3.186592	1.743981	-2.8654
H	1.618993	1.020177	-2.492624
H	3.93334	1.296492	-0.720895
