12

N	0.941092	-0.027881	0.024703
C	2.282156	0.022411	-0.083204
C	3.063978	1.127195	0.042853
C	4.510207	1.10012	-0.086278
O	5.21328	2.089252	0.019604
C	5.135167	-0.205567	-0.357111
C	5.693597	-1.259445	-0.578712
H	0.441903	-0.896546	-0.08481
H	0.402395	0.802828	0.22595
H	2.762203	-0.940032	-0.295015
H	2.637219	2.112264	0.252048
H	6.205102	-2.18439	-0.774899
