17

C	1.130826	-0.079861	-0.151352
C	2.606748	0.184991	-0.133484
O	3.371034	-0.26805	-1.238232
C	3.299814	1.141952	-1.00813
C	2.605471	1.945609	-2.073129
C	4.640798	1.691513	-0.57
O	5.567395	1.627133	-1.618054
H	0.622933	0.5259	0.614587
H	0.936097	-1.139449	0.074492
H	0.684527	0.143393	-1.129092
H	3.082269	-0.01515	0.8401
H	1.749867	1.405807	-2.497106
H	3.322881	2.153916	-2.880458
H	2.258494	2.9092	-1.669826
H	4.985387	1.132198	0.321816
H	4.545269	2.750481	-0.28078
H	5.583651	0.706018	-1.907252
