15

C	1.100511	0.072849	0.144942
N	2.503284	-0.002123	-0.206719
C	3.023021	-1.248416	-0.498374
O	2.38815	-2.273645	-0.47727
C	3.264653	1.183858	-0.236201
C	4.716959	1.07665	-0.610845
N	2.794774	2.334093	0.035625
H	0.549693	0.710332	-0.564388
H	0.968883	0.469335	1.164063
H	0.694722	-0.944508	0.103045
H	4.099267	-1.224198	-0.761071
H	4.852502	0.672292	-1.625506
H	5.278229	0.439403	0.089369
H	5.130962	2.090301	-0.576568
H	1.804287	2.305198	0.280537
