17

C	3.933691	-0.764485	1.318712
N	3.731111	-0.201171	0.000167
C	4.187926	1.027537	-0.396861
S	3.251439	2.001494	-1.37747
N	5.429929	1.373825	0.050054
C	6.465591	0.385112	0.272126
C	5.900202	2.730017	-0.110202
H	2.972988	-1.123962	1.71523
H	4.313469	0.001898	2.010997
H	4.63901	-1.612782	1.328232
H	2.84288	-0.408365	-0.440059
H	6.132554	-0.600448	-0.073837
H	6.762896	0.310663	1.33208
H	7.359851	0.656302	-0.312927
H	5.062883	3.429436	0.003168
H	6.341126	2.895258	-1.109913
H	6.662764	2.9372	0.656582
