20

C	1.004882	0.000877	-0.074293
C	2.515896	0.029905	0.047303
C	3.080828	1.12674	0.946752
C	4.508137	0.652164	1.180842
N	4.364306	-0.788243	1.309462
C	3.135227	-1.2412	0.657093
C	3.368481	-2.355878	-0.347457
H	0.664942	-0.838351	-0.701568
H	0.618949	0.927815	-0.52618
H	0.53361	-0.108741	0.916237
H	2.9559	0.163913	-0.96012
H	2.525407	1.146788	1.900116
H	3.023568	2.132178	0.503089
H	5.144051	0.955992	0.321979
H	4.957596	1.101417	2.083709
H	5.184105	-1.305993	1.014713
H	2.431452	-1.624008	1.426822
H	4.05085	-2.02426	-1.147745
H	2.422913	-2.674829	-0.812486
H	3.810698	-3.241313	0.136072
