14

O	2.141944	-0.132929	-1.704055
N	1.950961	0.784541	-0.698335
C	0.728361	0.774476	-0.132157
O	-0.162869	0.055716	-0.554105
C	3.133236	1.375969	-0.195434
C	3.858925	2.347798	-1.077302
C	3.104898	2.843995	0.115485
H	1.25046	-0.542577	-1.747175
H	0.629419	1.482152	0.717299
H	3.740622	0.720695	0.442445
H	3.426635	2.525097	-2.064549
H	4.950999	2.332359	-1.046001
H	3.659943	3.177502	0.995893
H	2.170326	3.381396	-0.061328
