17

C	1.115448	0.312356	-0.682333
C	2.453426	-0.094809	-0.150499
C	2.746215	-1.563185	-0.0121
N	3.269752	0.838296	0.155626
N	4.507463	0.367827	0.649274
C	5.592381	1.267811	0.272162
C	5.053309	1.287159	1.642288
H	1.040265	1.40636	-0.728779
H	0.30955	-0.084137	-0.042792
H	0.956479	-0.10849	-1.688942
H	1.895492	-2.175272	-0.341125
H	2.987246	-1.808689	1.032513
H	3.63664	-1.833411	-0.598373
H	5.316609	2.102139	-0.381274
H	6.54298	0.776588	0.043022
H	5.587838	0.810748	2.469688
H	4.414626	2.134851	1.911895
