14

C	1.158754	-0.198944	-0.180914
O	2.549474	-0.121755	-0.088134
C	3.029644	1.173591	0.023611
C	4.53246	1.158642	0.126288
C	5.262034	0.035306	0.111109
C	5.153345	2.44637	0.243996
N	5.624936	3.501752	0.33788
H	0.88722	-1.259966	-0.262012
H	0.772686	0.332869	-1.072734
H	0.659851	0.225628	0.712623
H	2.614577	1.688391	0.917682
H	2.736771	1.796998	-0.849469
H	4.756702	-0.927528	0.019657
H	6.350377	0.064897	0.188957
