13

C	1.038878	-0.045395	0.006323
C	2.253405	-0.056192	0.005181
C	3.669588	0.013351	-0.001147
N	4.430867	-1.031071	0.029353
N	5.717188	-0.636258	0.103986
C	5.857204	0.764773	-0.285841
C	4.466676	1.303282	0.053336
H	-0.035512	-0.05163	0.00749
H	6.366038	-1.32039	-0.267162
H	6.061584	0.861979	-1.370579
H	6.670364	1.25619	0.266471
H	4.103165	2.072923	-0.640799
H	4.420883	1.721408	1.074807
