18

C	2.759084	-1.327544	-0.28607
C	2.212663	-0.001982	0.22536
C	3.238938	1.109171	0.218325
N	4.383136	0.976229	1.081553
C	3.503845	1.855374	-1.069872
C	2.815702	2.551903	0.07331
O	3.498003	3.489811	0.812088
H	1.996691	-2.120902	-0.259996
H	3.611059	-1.667105	0.32436
H	3.113723	-1.233404	-1.32466
H	1.828627	-0.122998	1.255104
H	1.346444	0.308804	-0.381854
H	4.115235	0.597045	1.988135
H	5.095226	0.365664	0.687603
H	2.925405	1.567245	-1.952298
H	4.533292	2.165544	-1.269623
H	1.746792	2.774518	-0.022262
H	4.231525	2.979938	1.205448
