19

N	2.185068	-0.420795	-1.450007
C	2.416493	-0.005359	-0.080189
C	3.172753	1.30266	-0.023014
C	2.521139	2.591625	-0.555247
C	3.180528	3.358228	0.607529
C	3.346489	2.018662	1.344468
N	4.500391	1.850535	2.182185
H	1.654749	-1.288823	-1.480529
H	3.072114	-0.612033	-1.912945
H	2.960575	-0.750277	0.545767
H	1.43538	0.139861	0.407436
H	4.174621	1.176956	-0.477734
H	1.42439	2.547689	-0.455802
H	2.75945	2.901379	-1.582191
H	4.165738	3.758604	0.316324
H	2.617061	4.158956	1.109347
H	2.445702	1.825128	1.955559
H	5.353898	1.955256	1.635957
H	4.52509	0.918788	2.591226
