15

N	2.657937	-1.351089	1.106428
C	2.668967	-0.674148	-0.093024
N	2.360787	-1.146321	-1.238192
C	3.198563	0.735722	-0.000261
C	4.720181	0.752439	0.208847
C	5.26882	2.09713	0.314906
C	5.706316	3.222962	0.40523
H	2.63403	-0.81988	1.966423
H	2.20888	-2.25658	1.145511
H	2.041007	-2.117054	-1.16524
H	2.706817	1.278328	0.825009
H	2.94344	1.246424	-0.937298
H	5.19931	0.224997	-0.633366
H	4.982038	0.179287	1.114922
H	6.102876	4.218312	0.481785
