12

C	3.271191	-1.023832	0.524562
O	2.438845	0.092063	0.255939
C	3.008263	1.276222	0.173576
C	2.471909	2.510187	-0.082104
C	3.616956	3.343297	-0.030275
N	4.717887	2.685873	0.228124
O	4.323005	1.367916	0.357149
H	2.609204	-1.896803	0.549483
H	3.781689	-0.913493	1.493616
H	4.030087	-1.15123	-0.263111
H	1.43428	2.760864	-0.275483
H	3.675915	4.422685	-0.177676
