19

C	1.430432	-0.244521	-0.836817
O	2.799538	0.001365	-0.814162
C	3.131281	1.266239	-0.319547
C	4.638573	1.40295	-0.30103
C	5.099892	2.760933	0.177918
O	4.633233	2.973056	1.480941
C	4.986798	4.213012	2.006006
H	1.271865	-1.258241	-1.231912
H	0.88612	0.47174	-1.486356
H	0.977719	-0.189161	0.174251
H	2.731534	1.414378	0.70353
H	2.685741	2.065299	-0.952574
H	5.027894	1.223273	-1.31615
H	5.059357	0.619519	0.349196
H	4.721547	3.556329	-0.501423
H	6.208366	2.818838	0.145319
H	4.577804	4.281601	3.02373
H	4.57699	5.052152	1.407921
H	6.086506	4.34482	2.06153
