15

C	1.302985	0.191225	0.510675
C	2.654447	-0.09158	-0.071245
C	3.472453	0.936243	-0.796465
C	4.016198	0.355532	0.486661
N	4.910741	-0.754272	0.409171
C	4.252011	-1.71083	-0.136643
N	2.949745	-1.440993	-0.462379
H	1.263587	1.222676	0.88795
H	1.082664	-0.487431	1.34959
H	0.505395	0.086145	-0.243927
H	3.12099	1.969793	-0.744034
H	3.951348	0.651801	-1.738233
H	4.12533	1.019496	1.351358
H	4.676221	-2.697137	-0.352876
H	2.242065	-2.142048	-0.627563
