16

C	2.251465	-0.535811	-1.408708
C	2.327753	0.115408	-0.037296
C	3.311039	1.270903	0.005675
C	2.887798	2.589043	-0.690095
C	2.997192	3.229152	0.702572
O	2.858183	4.328274	1.162751
N	3.345108	2.02599	1.252601
H	1.533512	-1.369065	-1.419311
H	3.230433	-0.935553	-1.717698
H	1.934972	0.187676	-2.176768
H	2.623885	-0.631949	0.719352
H	1.336913	0.490859	0.272265
H	4.313426	0.926646	-0.310329
H	1.869736	2.591803	-1.106516
H	3.591104	2.997938	-1.428686
H	3.613613	1.772247	2.197249
