13

C	1.027104	-0.047522	0.172443
C	2.339929	0.080522	-0.018057
C	3.22151	1.28994	-0.037109
C	4.46228	0.758695	-0.763358
O	4.44896	-0.654785	-0.600568
C	3.219402	-1.104706	-0.263275
O	2.94528	-2.266229	-0.190783
H	0.583385	-1.047333	0.157537
H	0.375137	0.812653	0.344462
H	3.473598	1.587369	0.994552
H	2.774385	2.160785	-0.536233
H	4.429792	0.987548	-1.841831
H	5.408499	1.141332	-0.357559
