15

C	0.979062	0.042026	0.055954
C	2.481198	-0.015951	0.011079
C	3.18737	-0.702159	-1.091769
O	2.418118	-1.286054	-2.074618
C	3.234911	0.822785	-1.014028
C	4.490349	1.491651	-0.635848
O	4.881906	2.536857	-1.087884
H	0.634854	0.94504	0.582286
H	0.575269	-0.835545	0.584185
H	0.556026	0.042573	-0.957488
H	2.974281	-0.087769	0.988179
H	4.118614	-1.23022	-0.838888
H	2.899184	-1.234094	-2.907434
H	2.629084	1.354649	-1.754455
H	5.092485	0.936022	0.13667
