21

C	0.853655	-0.309561	-0.248342
C	2.355555	-0.584486	-0.280972
N	2.788752	-1.364242	-1.432967
C	3.152964	0.715869	-0.203055
C	4.666514	0.536384	-0.27214
C	5.226952	-0.454588	0.738646
N	4.788864	-0.147871	2.089293
H	0.558562	0.238323	0.661189
H	0.279085	-1.249269	-0.27471
H	0.548311	0.296971	-1.118686
H	2.610279	-1.16979	0.620331
H	2.54439	-0.871393	-2.292818
H	2.288527	-2.250251	-1.466998
H	2.88268	1.221751	0.737413
H	2.831036	1.385987	-1.022452
H	5.1483	1.521582	-0.131167
H	4.953679	0.189283	-1.276919
H	6.331063	-0.491565	0.616381
H	4.859408	-1.459644	0.473005
H	5.171695	0.747374	2.390139
H	5.135439	-0.841626	2.74757
