18

C	0.998362	-0.147518	0.180079
C	2.47469	-0.006396	-0.188315
C	2.977565	1.357705	-0.059361
C	3.381818	2.49587	0.053338
C	3.842865	3.872532	0.181134
C	2.75783	4.90973	-0.114834
N	3.304232	6.246093	-0.000472
H	0.667795	-1.191358	0.069575
H	0.369092	0.481907	-0.466145
H	0.821745	0.16037	1.221405
H	2.635636	-0.352395	-1.224285
H	3.083088	-0.67394	0.446108
H	4.693264	4.058131	-0.496313
H	4.229773	4.035166	1.20393
H	1.884808	4.701783	0.539254
H	2.406957	4.760083	-1.149047
H	3.50882	6.464657	0.973406
H	2.628118	6.93931	-0.311548
