18

N	0.919893	-0.028626	0.033996
C	2.367531	-0.094551	0.041082
C	2.975257	1.294879	-0.065245
C	4.494575	1.296144	-0.019745
C	5.085409	2.703407	-0.130934
C	6.542347	2.729686	-0.10475
C	7.753288	2.733879	-0.081451
H	0.51798	-0.956119	0.149435
H	0.589864	0.310022	-0.868661
H	2.803524	-0.73494	-0.758268
H	2.689888	-0.549143	0.994614
H	2.562628	1.917285	0.747259
H	2.636113	1.766341	-1.007344
H	4.899304	0.671736	-0.83453
H	4.844231	0.83277	0.918845
H	4.699234	3.334051	0.689465
H	4.734468	3.179631	-1.063881
H	8.827296	2.739247	-0.060316
