13

C	0.684612	-1.152925	-1.452314
C	0.740021	0.01169	-0.796561
C	1.96606	0.713285	-0.419959
C	1.968211	1.883263	0.237953
O	3.087282	0.014804	-0.828461
C	4.358119	0.395495	-0.638239
O	4.750336	1.382983	-0.094357
H	-0.27553	-1.612011	-1.696862
H	1.593685	-1.673952	-1.760421
H	-0.182297	0.517628	-0.496546
H	1.001538	2.318282	0.496522
H	2.880148	2.402595	0.518272
H	5.011524	-0.383237	-1.084088
