14

O	0.925242	0.002142	0.316128
C	2.128559	0.029143	0.141999
N	2.869349	1.174325	0.269549
C	4.218116	1.286022	-0.240431
C	5.029783	0.055669	0.136457
C	4.257065	-1.19392	-0.15855
C	2.91782	-1.190364	-0.177743
H	2.314854	2.01478	0.385384
H	4.682176	2.193386	0.173464
H	4.219756	1.393856	-1.343995
H	5.278636	0.074569	1.214203
H	5.989545	0.061105	-0.402285
H	4.808085	-2.126157	-0.322727
H	2.326434	-2.089385	-0.361744
