17

C	0.952735	0.025301	0.083592
C	2.405626	0.007826	0.021255
C	3.618382	-0.013527	-0.027548
C	5.084548	-0.019021	-0.121645
N	5.608951	-0.709899	-1.295282
C	5.662363	1.41212	-0.094534
N	7.102128	1.474317	-0.109428
H	0.56039	1.049848	-0.012832
H	0.589938	-0.382405	1.040507
H	0.510997	-0.578686	-0.724842
H	5.485373	-0.541498	0.767359
H	5.161022	-0.332933	-2.130859
H	5.357223	-1.695819	-1.265299
H	5.268788	1.94185	0.787982
H	5.261643	1.950904	-0.973439
H	7.434315	0.841588	-0.838061
H	7.472537	1.102272	0.763875
