10

O	0.930309	-0.07764	0.091369
C	2.141634	-0.006461	0.031856
C	2.934997	1.207047	-0.051647
C	4.278639	1.094877	-0.110002
O	4.943244	-0.064154	-0.096704
N	4.283116	-1.254255	-0.021247
C	3.000815	-1.215683	0.036952
H	2.44995	2.183904	-0.066621
H	4.974694	1.934955	-0.174973
H	2.512852	-2.19444	0.096447
