18

C	3.05832	-0.20327	0.742356
O	2.307322	0.927114	0.405736
C	2.951023	2.090117	0.13515
C	1.937744	3.141621	-0.183699
C	4.289349	2.23346	0.150914
C	5.066068	3.481379	-0.128164
N	6.018862	3.728235	0.94339
H	2.343358	-1.016945	0.9227
H	3.657195	-0.040995	1.656882
H	3.742966	-0.500033	-0.073386
H	1.208866	3.213625	0.638909
H	1.374606	2.85541	-1.086328
H	2.388653	4.125614	-0.352601
H	4.916824	1.377009	0.409311
H	4.379257	4.32784	-0.334038
H	5.648957	3.33993	-1.057733
H	5.520944	3.919267	1.81119
H	6.581708	4.551861	0.740161
