17

C	0.861195	-0.025709	0.042294
C	2.381326	-0.026686	0.032313
C	2.977255	1.373972	-0.007636
C	4.492324	1.356209	-0.021912
O	5.039158	2.672278	-0.137049
C	5.143838	3.381665	0.982561
O	4.826213	3.018474	2.079446
H	0.455029	-1.047569	0.07482
H	0.456109	0.4656	-0.8571
H	0.469261	0.517217	0.917255
H	2.746338	-0.60662	-0.834665
H	2.75759	-0.556108	0.925782
H	2.641133	1.94808	0.871773
H	2.618225	1.914513	-0.900742
H	4.874818	0.811162	-0.89724
H	4.882535	0.879755	0.891541
H	5.580972	4.374447	0.744448
