16

C	4.052178	-1.771187	-0.503693
O	5.101641	-0.987047	-0.009508
N	5.255888	0.127896	-0.804757
C	6.165044	0.904888	-0.353301
C	6.983921	0.687841	0.871971
O	6.455928	2.030415	-1.017341
C	5.728951	2.287357	-2.198303
H	3.978179	-2.641631	0.16267
H	4.25208	-2.115545	-1.533572
H	3.093854	-1.222037	-0.496365
H	6.347955	0.307318	1.682445
H	7.470223	1.62493	1.168252
H	7.755387	-0.074405	0.681283
H	6.11004	3.236585	-2.594959
H	4.649555	2.366432	-1.99083
H	5.870336	1.479741	-2.934855
