18

C	1.691658	-0.602777	-1.086153
N	2.260702	-0.014065	0.102517
C	3.07873	1.160122	-0.100863
C	4.329048	0.950604	-0.947507
C	2.290786	2.430876	-0.481784
O	2.818675	3.146943	0.63025
C	3.355704	1.953355	1.190445
H	1.038269	-1.443234	-0.806504
H	2.421477	-0.979135	-1.833403
H	1.054965	0.137533	-1.599009
H	2.784376	-0.709301	0.630647
H	4.905182	1.884827	-1.028842
H	4.077115	0.623232	-1.968094
H	4.980612	0.185828	-0.492504
H	1.195889	2.292368	-0.41305
H	2.542896	2.90435	-1.446958
H	4.41243	2.065527	1.491022
H	2.763316	1.582937	2.04694
