18

C	2.434832	-1.034117	-0.356125
C	1.988426	0.063662	0.59532
C	2.665231	1.399688	0.343742
C	2.172726	2.508817	1.251656
O	4.062073	1.176517	0.541407
N	4.804523	2.171625	-0.005257
C	6.049359	2.027731	0.200204
H	1.93395	-1.987605	-0.132305
H	3.520734	-1.191128	-0.282277
H	2.2057	-0.772628	-1.402083
H	2.190339	-0.230753	1.640172
H	0.899178	0.219494	0.522544
H	2.522087	1.69365	-0.712897
H	2.307195	2.22945	2.308696
H	1.10555	2.712019	1.075997
H	2.737927	3.431955	1.059545
H	6.71181	2.78698	-0.22287
H	6.46071	1.182693	0.770741
