17

C	0.995532	-0.002282	0.048775
C	2.523553	-0.025837	0.002905
N	3.034275	-0.788164	1.132763
C	3.002376	-0.742263	-1.274746
N	4.446998	-0.808785	-1.308196
C	3.035119	1.364705	-0.021595
C	3.464793	2.499176	-0.030464
H	0.575938	0.533393	-0.815784
H	0.646522	0.500752	0.962877
H	0.619875	-1.035832	0.060106
H	2.963166	-0.243221	1.989475
H	4.025388	-0.961748	0.956242
H	2.536344	-0.243585	-2.149363
H	2.602949	-1.767753	-1.224646
H	4.840284	0.105355	-1.52533
H	4.769518	-1.456142	-2.0216
H	3.84416	3.504233	-0.027069
