13

O	1.157695	-0.03363	0.52903
C	2.304527	-0.011266	0.174101
C	3.141509	1.251442	-0.010794
C	4.376007	0.836044	-0.801725
C	4.475114	-0.681694	-0.679386
O	5.441567	-1.335188	-0.963492
C	3.15843	-1.22251	-0.152906
H	3.402633	1.606186	1.001469
H	2.528726	2.041155	-0.468127
H	4.268225	1.058713	-1.877773
H	5.320581	1.298201	-0.48235
H	2.665716	-1.869158	-0.898207
H	3.31442	-1.851916	0.73923
