17

C	1.052641	-0.131039	-0.043438
C	2.508565	0.169065	0.05674
C	3.144943	1.290694	-0.319815
C	4.623721	1.239876	-0.03935
C	4.843473	-0.178343	0.466241
C	4.491962	-1.318262	-0.440591
C	3.485262	-0.83684	0.573431
H	0.874991	-1.006159	-0.691382
H	0.48608	0.720433	-0.446615
H	0.634481	-0.383755	0.945642
H	2.657134	2.147699	-0.792486
H	5.232542	1.465307	-0.933474
H	4.910788	1.985186	0.724735
H	5.606992	-0.3544	1.22861
H	4.989251	-2.273665	-0.249621
H	4.284602	-1.110951	-1.4961
H	3.20779	-1.491504	1.406324
