15

C	2.804361	0.939818	-4.043297
C	3.74944	1.310077	-3.38493
C	4.894279	1.774707	-2.610363
O	5.004698	1.052082	-1.412415
C	6.105545	1.428491	-0.662693
C	6.695839	0.380397	0.208701
C	7.448019	0.850508	-1.009531
H	1.962997	0.60706	-4.622913
H	4.776867	2.859998	-2.408666
H	5.814558	1.668282	-3.2209
H	6.072442	2.463514	-0.289281
H	6.223455	-0.603589	0.154648
H	7.055626	0.667587	1.199615
H	8.34141	1.466837	-0.878508
H	7.479255	0.168882	-1.864385
