18

C	1.075236	-0.368404	0.342822
N	2.417092	0.106995	0.193046
C	2.884411	1.266057	0.941121
C	4.269973	0.607234	1.017965
C	3.532867	-0.708095	0.675938
C	4.123848	-1.649956	-0.31817
C	4.38186	-2.938255	-0.089729
H	0.948127	-1.305886	-0.220691
H	0.361904	0.365065	-0.065559
H	0.795467	-0.565662	1.403175
H	2.413958	1.359345	1.944224
H	2.792624	2.235866	0.422995
H	4.937611	0.927311	0.205127
H	4.808683	0.642631	1.974074
H	3.2787	-1.260302	1.609572
H	4.345522	-1.20515	-1.296326
H	4.154905	-3.39875	0.878002
H	4.828203	-3.580694	-0.853496
