10

O	0.923519	-0.033528	0.070007
N	2.268496	-0.102678	0.043648
C	2.854555	1.048054	-0.012051
C	2.133714	2.364732	-0.045608
O	2.711539	3.417213	-0.097961
C	4.282393	1.065562	-0.04416
C	5.49172	1.130008	-0.072291
H	0.648693	-0.95676	0.110654
H	1.024072	2.294314	-0.018239
H	6.564849	1.186733	-0.098611
