14

C	-1.310024	0.641659	0.002356
C	-1.061969	-0.856394	-0.123249
N	-0.218741	-1.530304	0.841882
C	0.386944	-1.08764	-0.396888
C	1.064638	0.269126	-0.356208
O	0.975164	0.896377	0.913278
C	0.052559	1.298362	-0.088074
H	-1.934473	0.98785	-0.837505
H	-1.837596	0.911776	0.932868
H	-1.852428	-1.473629	-0.565933
H	0.061109	-0.894523	1.592518
H	0.776148	-1.852647	-1.075691
H	1.984922	0.448277	-0.921383
H	0.145518	2.34149	-0.41529
