11

C	1.05203	0.002306	-0.122829
C	2.257804	-0.006758	-0.029501
C	3.729135	-0.00271	0.113718
O	4.30433	-1.135753	-0.507911
C	4.784771	-0.667682	-1.708596
C	4.780166	0.664397	-1.710461
O	4.296611	1.132441	-0.510955
H	-0.019641	0.007951	-0.209566
H	4.001656	-0.000392	1.181895
H	5.116483	-1.400179	-2.438791
H	5.106753	1.397179	-2.442673
