16

C	0.923791	-0.204981	-0.14443
C	2.437489	-0.105048	-0.230514
C	3.009589	-0.990984	-1.324951
N	2.785377	1.2862	-0.470897
N	4.074706	1.59231	-0.569207
C	4.470742	2.79373	-0.409831
H	0.520746	0.423349	0.666849
H	0.616116	-1.241013	0.056208
H	0.46194	0.117153	-1.091225
H	2.864364	-0.43661	0.740027
H	2.55779	-0.738323	-2.29735
H	2.807965	-2.050745	-1.106359
H	4.095556	-0.845289	-1.404189
H	2.184328	1.969056	-0.003257
H	5.533858	3.011734	-0.540423
H	3.787741	3.625431	-0.15767
