13

O	2.408432	-0.455489	-1.443064
C	2.261113	-0.13541	-0.083341
C	3.053037	1.127488	0.187663
C	4.542081	0.972002	-0.135154
C	5.208624	-0.004631	0.719572
N	5.708581	-0.783878	1.414531
H	2.068515	-1.342168	-1.592485
H	2.632733	-0.94827	0.572531
H	1.200332	0.040229	0.185746
H	2.916731	1.427796	1.238335
H	2.652461	1.938924	-0.440609
H	5.068193	1.934414	-0.034849
H	4.649037	0.644125	-1.181416
