10

O	0.991176	-0.011729	-0.007873
C	2.391098	0.030588	0.001095
C	2.863132	1.408846	0.000535
C	3.286569	2.550388	0.000239
C	3.770909	3.83364	-8.2e-05
C	4.202078	4.971594	-0.000373
H	0.725401	-0.936711	-0.007246
H	2.833701	-0.475487	-0.883056
H	2.822168	-0.470855	0.893542
H	4.582818	5.976296	-0.00066
