16

N	0.94071	0.006538	-0.011529
C	2.387716	-0.022704	-0.025432
C	2.941284	1.403524	-0.023993
C	4.395055	1.461735	-0.019376
C	5.611312	1.486607	-0.016311
C	7.034444	1.488445	-0.013797
C	7.803484	2.586908	0.018518
H	0.56461	-0.928977	0.12071
H	0.583469	0.332546	-0.9082
H	2.83798	-0.573654	-0.878596
H	2.73978	-0.533115	0.886192
H	2.532201	1.93728	0.851135
H	2.559471	1.944405	-0.910067
H	7.514933	0.502029	-0.041498
H	7.367027	3.588583	0.047142
H	8.893243	2.50552	0.017773
