17

C	1.429375	-0.094966	0.404315
C	2.721116	0.054705	-0.388072
C	2.654132	-0.652986	-1.74353
O	3.899821	-0.753607	-2.364599
C	3.048802	1.516606	-0.584039
C	4.16	2.179441	0.099098
O	4.264325	1.811995	-1.262438
H	1.485824	0.426094	1.371739
H	1.209602	-1.154129	0.604467
H	0.573239	0.323636	-0.150206
H	3.552859	-0.414565	0.166594
H	1.905699	-0.130854	-2.381287
H	2.274334	-1.678543	-1.596891
H	4.336778	0.104832	-2.276319
H	2.203563	2.14028	-0.914971
H	4.776785	1.598767	0.797567
H	4.123995	3.259153	0.290312
