18

C	2.735225	-0.984386	-0.755461
N	2.30353	0.215189	-0.078188
C	3.322918	1.196254	0.075023
C	3.505991	2.241101	-1.011518
C	2.662025	2.232323	-2.257546
C	2.919864	2.610592	0.322185
O	3.669021	3.320768	1.246283
H	1.903049	-1.702735	-0.819915
H	3.596072	-1.497778	-0.275391
H	3.037529	-0.738848	-1.785852
H	1.887322	-0.003572	0.823253
H	4.255491	0.902587	0.586708
H	4.545874	2.563075	-1.13784
H	1.678919	1.785843	-2.05043
H	3.135629	1.640762	-3.057521
H	2.506454	3.25183	-2.64469
H	1.833388	2.79065	0.338283
H	3.736848	4.228185	0.931525
