13

C	0.81891	0.038314	-0.065139
C	2.167391	0.014262	-0.044951
N	2.955957	-1.138428	-0.096105
C	2.536962	-2.421864	0.175794
N	3.19111	-3.503149	0.048152
C	2.925281	1.229908	0.038043
C	3.595219	2.238835	0.099976
H	0.299381	0.989823	0.038375
H	0.223309	-0.867882	-0.179195
H	3.931488	-1.003858	-0.335261
H	1.512009	-2.466301	0.572653
H	4.125354	-3.334896	-0.340384
H	4.169009	3.145977	0.156112
