17

C	1.056839	0.018645	0.041356
C	2.388192	0.019955	0.007862
C	3.355135	-1.155969	0.053443
C	4.666451	-0.360924	-0.028419
C	4.34685	0.667376	-1.137859
C	3.329142	1.189524	-0.085856
C	4.401377	0.792408	0.96644
H	0.489609	-0.914059	0.112338
H	0.488575	0.952141	-0.000707
H	3.219136	-1.8469	-0.794604
H	3.266581	-1.738014	0.985186
H	5.6046	-0.933085	-0.018649
H	3.954836	0.298754	-2.09953
H	5.169689	1.377562	-1.308405
H	2.888636	2.193968	-0.134222
H	5.230846	1.51449	1.008522
H	4.061584	0.542209	1.984735
