12

C	0.305728	1.342947	0.163308
C	1.341045	0.276972	-0.153696
O	0.959199	-0.958586	0.403509
C	-0.359266	-1.227332	0.203439
C	-1.247942	-0.309699	-0.206422
O	-0.938736	1.000855	-0.399881
H	0.60007	2.318125	-0.250069
H	0.208171	1.438376	1.26131
H	2.32319	0.540047	0.264244
H	1.437577	0.180541	-1.251718
H	-0.634265	-2.263523	0.401324
H	-2.291141	-0.552492	-0.409569
