17

C	1.98969	-0.180732	-1.481732
O	2.258905	0.320744	-0.210479
C	3.371557	1.190396	-0.144298
C	3.597647	1.577186	1.320565
C	2.89304	2.929137	1.510017
C	2.816584	3.462145	0.107782
C	3.105512	2.527392	-0.802672
H	1.173384	-0.91184	-1.387681
H	2.869874	-0.69491	-1.920261
H	1.667957	0.603704	-2.194327
H	4.252638	0.674342	-0.580897
H	4.677295	1.695834	1.498036
H	3.229882	0.781714	1.984025
H	3.437754	3.602158	2.192683
H	1.877142	2.816301	1.92975
H	2.525275	4.490925	-0.122951
H	3.090434	2.679533	-1.884859
