16

C	0.768471	0.014088	-0.02234
N	2.209549	0.026357	0.086841
C	3.070386	-0.820462	-0.694869
C	2.545861	-1.390341	-1.994437
O	1.967755	-0.314072	-2.698794
C	2.545631	0.90038	-2.273863
C	3.070943	0.659206	-0.875405
H	0.37672	0.956281	0.390784
H	0.375622	-0.802884	0.602002
H	0.374953	-0.109301	-1.047756
H	3.857821	-1.367105	-0.16192
H	3.385417	-1.848952	-2.555351
H	1.768525	-2.162037	-1.860445
H	3.384117	1.211668	-2.929306
H	1.767402	1.680774	-2.327958
H	3.859238	1.31769	-0.489993
