17

N	2.386084	-0.550362	1.286037
C	2.141975	0.071973	-0.004813
C	2.841696	1.402708	-0.097666
C	2.195676	2.547919	-0.33792
C	4.3193	1.351148	0.086756
C	5.251924	1.517088	-1.062557
N	5.076924	2.576005	-0.086338
H	2.001815	-1.491587	1.311694
H	1.921572	-0.020843	2.02135
H	1.071138	0.213425	-0.258042
H	2.56015	-0.5946	-0.78156
H	1.112616	2.567168	-0.489786
H	2.752306	3.487021	-0.397004
H	4.631043	0.640515	0.863248
H	4.836442	1.727031	-2.054708
H	6.180783	0.934103	-1.06685
H	5.859157	2.609698	0.564448
