13

C	0.976476	-0.004341	0.00031
C	2.426523	0.045185	-0.005352
C	3.640502	0.067086	-0.009096
C	5.100732	-0.022127	-0.003856
O	5.69786	-1.074587	0.08183
N	5.734126	1.183635	-0.10391
N	5.134157	2.421042	-0.205618
H	0.535062	1.003755	-0.01491
H	0.609644	-0.525242	0.898673
H	0.604409	-0.553549	-0.878909
H	6.748629	1.157756	-0.103319
H	4.545845	2.603066	0.605885
H	4.545596	2.46818	-1.035918
