16

C	2.212468	-0.69685	-1.106406
O	1.906482	0.460859	-0.380194
C	3.032444	1.183995	-0.03066
C	3.534667	2.223375	-1.025477
N	2.904059	2.426217	-2.294343
C	2.819967	2.633638	0.23019
O	3.519799	3.186138	1.287944
H	1.265303	-1.193586	-1.359483
H	2.831415	-1.400111	-0.516471
H	2.754639	-0.466728	-2.042871
H	3.763557	0.66661	0.60914
H	4.614222	2.409436	-1.020033
H	1.928026	2.140043	-2.234916
H	3.330855	1.825024	-2.997164
H	1.779086	2.970259	0.096155
H	3.754741	4.08746	1.04266
