19

C	2.767548	-0.958812	-0.722722
N	2.300541	0.230638	-0.052029
C	3.281756	1.249473	0.097599
C	3.43064	2.284075	-1.003487
C	2.605064	2.220235	-2.260848
C	2.823958	2.674097	0.305736
N	3.482112	3.612071	1.161683
H	1.957553	-1.702745	-0.78413
H	3.643145	-1.444571	-0.239736
H	3.063306	-0.709464	-1.754044
H	1.879013	0.00447	0.844782
H	4.225355	0.980139	0.608565
H	4.459977	2.635728	-1.149864
H	1.643861	1.725712	-2.060816
H	3.120696	1.650186	-3.050588
H	2.402009	3.228935	-2.652784
H	1.732391	2.791323	0.283666
H	4.484493	3.616336	0.990124
H	3.353121	3.358923	2.140232
