13

N	5.287621	-1.985649	-0.344459
C	4.555648	-1.105068	-0.177291
C	3.647593	0.019554	0.035872
C	4.368912	1.345035	0.149804
C	4.741343	2.104673	-1.08714
C	3.643461	2.61056	-0.198232
H	3.057956	-0.183095	0.946039
H	2.930334	0.04445	-0.802001
H	5.07374	1.396131	0.986363
H	4.462308	1.671562	-2.052208
H	5.695645	2.636778	-1.098034
H	3.830449	3.496387	0.414185
H	2.61305	2.527602	-0.556888
