13

C	1.044914	0.027228	-0.092164
C	2.536798	0.071065	0.073314
C	3.215495	-1.22172	0.238353
C	4.521399	-1.487125	0.398404
N	3.047776	1.251387	0.050672
O	4.402688	1.291253	0.201749
H	0.645108	1.043145	-0.198331
H	0.56849	-0.454863	0.777249
H	0.766088	-0.560629	-0.982133
H	2.525317	-2.073686	0.22362
H	5.277537	-0.705202	0.425634
H	4.850105	-2.524614	0.507616
H	4.597184	2.232971	0.158838
