15

C	1.116042	-0.12703	0.081761
C	2.427277	0.038937	-0.087136
C	3.258508	1.290246	-0.004679
C	4.480523	0.914558	-0.840458
C	4.512491	-0.582061	-0.691699
C	5.528273	-1.431937	-0.838041
O	3.254598	-1.01394	-0.369821
H	0.664548	-1.116636	-0.000984
H	0.485436	0.729986	0.317213
H	3.546246	1.465144	1.046167
H	2.719919	2.178639	-0.358471
H	4.318164	1.169884	-1.901757
H	5.416002	1.389888	-0.519143
H	5.381282	-2.504628	-0.703403
H	6.515642	-1.057362	-1.106971
