11

N	0.880606	0.061686	-0.204114
C	2.256436	0.021958	-0.076848
C	3.146464	1.069339	-0.01565
C	4.502949	0.63269	0.030275
C	4.635839	-0.725638	0.010007
S	3.09191	-1.502138	-0.086618
H	0.476644	0.961045	0.029962
H	0.378703	-0.696648	0.243143
H	2.833308	2.114529	-0.001792
H	5.355032	1.312103	0.088118
H	5.543361	-1.325066	0.052638
