22

C	2.240307	-0.406479	-1.915003
C	3.283129	0.392361	-1.149144
C	2.706265	1.613066	-0.444644
C	3.762033	2.413648	0.303353
N	3.233907	3.494062	1.108293
C	4.219654	4.019757	2.016944
C	2.609691	4.538119	0.336345
H	2.682763	-1.280793	-2.415986
H	1.754545	0.209922	-2.688899
H	1.447415	-0.773595	-1.243635
H	4.083069	0.71405	-1.83995
H	3.776168	-0.259142	-0.405398
H	1.928185	1.306739	0.276187
H	2.200645	2.248648	-1.192079
H	4.528671	2.780389	-0.424114
H	4.298114	1.727862	0.982231
H	4.618597	3.21458	2.653413
H	3.764914	4.774823	2.67744
H	5.084423	4.501258	1.502683
H	1.775323	4.14223	-0.260073
H	3.314584	5.048238	-0.362379
H	2.194659	5.304617	1.008847
