11

C	0.991083	0.004855	-0.126899
C	2.324119	-0.010911	-0.000835
C	3.274682	-1.174667	-0.014594
O	4.568326	-0.584309	0.163357
N	4.458194	0.763561	0.273177
C	3.226956	1.11581	0.186464
H	0.414507	-0.912887	-0.265811
H	0.439151	0.947183	-0.09513
H	3.267723	-1.725983	-0.969927
H	3.097108	-1.888799	0.807122
H	2.958009	2.170807	0.255827
