15

C	0.861209	0.08774	-0.146307
C	2.338255	0.11064	-0.316812
C	3.184827	0.873317	0.376606
S	4.911433	0.855038	-0.021252
C	5.67816	0.103319	1.406577
O	5.116715	-0.052634	-1.149582
O	5.363485	2.242372	-0.076304
H	0.518914	-0.931879	0.095558
H	0.365049	0.363588	-1.091444
H	0.517814	0.771669	0.64221
H	2.776184	-0.541259	-1.084499
H	2.89658	1.592116	1.150205
H	5.462891	0.708141	2.296806
H	6.755977	0.114498	1.19121
H	5.314067	-0.925985	1.512779
