14

C	0.855265	-0.53781	0.063621
C	2.32464	-0.183751	0.185543
N	2.58279	1.166688	-0.25784
N	3.706999	1.458724	-0.843828
C	4.023779	2.686324	-1.083997
C	5.241436	2.984551	-1.759464
N	6.225368	3.273377	-2.303941
H	0.67783	-1.563969	0.41639
H	0.515983	-0.464968	-0.980346
H	0.227075	0.129741	0.675145
H	2.945917	-0.83715	-0.442914
H	2.666701	-0.323475	1.229264
H	1.994047	1.91639	0.112126
H	3.386351	3.538039	-0.79242
