15

C	1.038288	0.215179	-0.020256
C	2.526856	-0.058704	0.139592
O	3.304884	1.07892	-0.223619
C	3.637816	1.100388	-1.562828
O	4.479129	0.031549	-1.931587
C	3.989336	-1.15638	-1.518254
C	3.021573	-1.268011	-0.59936
H	0.74965	1.095769	0.572198
H	0.446565	-0.647349	0.322862
H	0.780768	0.39805	-1.074745
H	2.741444	-0.201809	1.213502
H	4.192765	2.026797	-1.758614
H	2.733613	1.051789	-2.205561
H	4.463926	-2.006179	-2.015147
H	2.638968	-2.254011	-0.330361
