16

C	7.092089	2.089556	-0.009522
O	6.174222	2.885263	-0.71482
N	4.949571	2.837843	-0.116518
C	4.082911	3.543448	-0.724683
C	2.681746	3.622791	-0.206537
C	2.313898	5.018175	0.20975
C	1.357527	5.758472	-0.350838
H	8.046694	2.178432	-0.545419
H	6.780158	1.031127	0.009838
H	7.220731	2.441969	1.027951
H	4.360882	4.114748	-1.62484
H	2.604296	2.933165	0.650141
H	1.98204	3.272549	-0.98524
H	2.905894	5.436899	1.033428
H	0.750054	5.375392	-1.177996
H	1.140596	6.771512	-0.002575
