17

C	0.928691	0.032017	-0.184458
C	2.414846	-0.038055	0.122013
O	2.693759	-1.186492	0.909122
C	3.403878	-0.838322	2.070612
C	3.503572	0.660973	2.060297
C	4.151016	1.423911	3.161052
C	2.941067	1.108501	0.935262
H	0.603855	-0.88969	-0.68967
H	0.701773	0.886487	-0.841321
H	0.35361	0.138112	0.74769
H	2.969632	-0.115678	-0.838104
H	4.410467	-1.308098	2.075532
H	2.877535	-1.211484	2.972695
H	4.128695	2.506545	2.973332
H	5.203258	1.117517	3.286945
H	3.649672	1.229426	4.124261
H	2.862063	2.152751	0.624829
