12

C	0.997976	0.003141	-0.154096
C	2.325596	-0.016227	0.0334
C	3.245226	-1.214629	0.12387
N	4.481826	-0.599714	0.591367
N	4.442946	0.741264	0.472776
C	3.23526	1.112226	0.205138
H	0.418169	-0.915816	-0.269306
H	0.456091	0.950854	-0.200048
H	3.373508	-1.686061	-0.869825
H	2.882872	-1.986617	0.821227
H	5.376978	-1.010943	0.358994
H	2.975413	2.169832	0.141964
