20

C	0.934083	-0.009316	0.019226
C	2.445465	0.025522	0.04114
C	3.183616	1.055892	0.921026
C	4.248464	-0.015993	1.249545
C	5.495111	0.056132	0.385283
C	3.220521	-1.085566	0.798428
N	3.71139	-2.275871	0.160205
H	0.563483	-0.889752	-0.531547
H	0.508053	0.885127	-0.463113
H	0.527612	-0.060653	1.043006
H	2.834563	0.079103	-0.992018
H	2.587237	1.332082	1.805372
H	3.535289	1.981268	0.438221
H	4.546283	-0.085391	2.308667
H	5.251351	0.192262	-0.681983
H	6.088341	-0.866458	0.479273
H	6.129848	0.905245	0.683921
H	2.623703	-1.391246	1.676281
H	4.130253	-2.05762	-0.741712
H	2.957315	-2.934768	-0.019301
