13

C	1.348394	-0.575792	0.562406
C	2.436148	-0.184522	-0.100011
C	3.184637	1.078543	0.173553
C	4.688013	0.892583	0.222693
O	5.241368	-0.142926	-0.058547
C	5.443397	2.078127	0.61891
C	6.051957	3.072824	0.95064
H	0.833251	-1.505627	0.30871
H	0.931719	0.014945	1.385189
H	2.838121	-0.808836	-0.905338
H	2.853616	1.563434	1.107524
H	2.99797	1.827457	-0.621851
H	6.603809	3.948238	1.243821
