19

C	2.867201	-1.019854	-0.404905
C	2.391561	0.247291	0.293147
C	3.405615	1.361672	0.220901
C	3.507567	2.264698	-0.99245
C	3.082116	2.824042	0.33697
C	1.678056	3.314678	0.547019
O	3.95792	3.652202	1.039588
H	2.113922	-1.821173	-0.35006
H	3.794222	-1.401472	0.051805
H	3.080239	-0.827315	-1.468582
H	2.160276	0.029665	1.350363
H	1.444223	0.579949	-0.161402
H	4.372302	1.091593	0.669319
H	2.751372	2.149987	-1.776743
H	4.501142	2.531382	-1.365626
H	0.946787	2.725483	-0.020868
H	1.604149	4.363356	0.221649
H	1.416888	3.270908	1.615495
H	4.844162	3.281509	0.986987
