12

C	1.918472	-0.077174	-1.280291
O	2.440215	0.344286	-0.035668
N	3.187094	1.479682	-0.168027
C	4.550222	1.427046	-0.028536
O	5.213902	2.41968	0.170563
C	5.125746	0.095786	-0.196993
C	5.677694	-0.973692	-0.330852
H	1.32664	-0.977034	-1.06506
H	2.725884	-0.329374	-1.987732
H	1.266533	0.69386	-1.726153
H	2.7305	2.330431	0.155635
H	6.174469	-1.920336	-0.446377
