17

C	1.128542	-0.295422	-0.066914
C	2.637968	-0.15473	-0.080719
C	3.095237	1.289036	0.022211
O	2.293355	2.195806	0.112018
C	4.546305	1.591781	0.014601
C	5.53862	0.695279	-0.086003
C	6.990733	1.023008	-0.091446
H	0.830076	-1.351242	-0.138176
H	0.674964	0.252369	-0.905354
H	0.703271	0.12577	0.855355
H	3.069932	-0.588303	-1.000116
H	3.097853	-0.719219	0.749968
H	4.767743	2.661557	0.101794
H	5.286612	-0.368851	-0.173027
H	7.16879	2.1038	0.000417
H	7.468586	0.667726	-1.02026
H	7.510745	0.511232	0.735721
