15

C	2.142462	-0.879441	1.527382
C	2.870745	-0.571664	0.222058
C	2.62729	0.81906	-0.259517
N	3.593659	1.635791	-0.391882
O	3.183118	2.861819	-0.832717
C	4.282365	3.726461	-0.955042
H	2.315409	-1.920535	1.839278
H	1.054296	-0.737989	1.425359
H	2.490002	-0.220279	2.337545
H	2.53775	-1.279481	-0.558471
H	3.957338	-0.708042	0.336961
H	1.59811	1.144348	-0.4873
H	3.879229	4.684642	-1.309465
H	5.018345	3.347473	-1.684999
H	4.788584	3.879287	0.013502
