17

C	1.443483	5.770526	-0.69321
C	2.724509	5.001173	-0.735289
C	2.770602	3.661733	-0.710058
O	3.851902	2.860959	-0.741141
C	5.119329	3.471015	-0.786896
C	6.16557	2.407686	-0.755637
C	7.21206	2.354139	-1.578197
H	1.398828	6.439732	0.183085
H	0.569825	5.102405	-0.644538
H	1.32327	6.410307	-1.584202
H	3.650723	5.580895	-0.790076
H	1.8557	3.061718	-0.659514
H	5.236934	4.141813	0.089816
H	5.219361	4.099048	-1.692919
H	6.03871	1.65309	0.029893
H	7.35172	3.091157	-2.376535
H	7.972944	1.574655	-1.485334
