12

C	0.966355	-0.136846	0.220605
S	2.705448	0.005966	-0.157888
O	3.442781	-0.65911	0.911577
O	2.88241	-0.378507	-1.556348
C	3.029791	1.750698	-0.015008
C	3.358822	2.446472	-1.098294
H	0.384106	0.405013	-0.534725
H	0.780311	0.242659	1.233533
H	0.754294	-1.214199	0.175228
H	3.002809	2.14214	1.006461
H	3.382495	1.954526	-2.076113
H	3.62459	3.505099	-1.034568
