17

C	-1.258734	-0.788288	-0.513606
C	-1.229147	0.764364	-0.531642
C	0.014889	1.063642	0.312821
C	-0.02989	-0.029804	1.377672
C	-0.013006	-1.139528	0.319451
C	1.218777	-0.704484	-0.477238
O	1.163742	0.718185	-0.452178
H	-1.218294	-1.229996	-1.520783
H	-2.169224	-1.171841	-0.027401
H	-2.135093	1.206118	-0.087712
H	-1.109586	1.182639	-1.540878
H	0.121449	2.103309	0.6513
H	-0.945114	-0.018807	1.989032
H	0.854729	-0.021159	2.032287
H	0.028511	-2.176675	0.679347
H	2.160009	-1.05301	-0.01303
H	1.198262	-1.070316	-1.519192
