12

C	2.795445	-1.177348	0.372696
C	2.27742	0.029371	0.11888
C	3.028768	1.281412	0.020309
N	2.359676	2.395157	-0.224635
S	3.39591	3.67611	-0.294618
C	4.802424	2.748138	0.007999
C	4.44682	1.437211	0.162911
H	2.156581	-2.061556	0.42866
H	3.865483	-1.334041	0.5359
H	1.200633	0.145477	-0.037339
H	5.798924	3.187992	0.058352
H	5.148437	0.628757	0.365236
