17

C	0.815883	0.697998	-0.843292
N	2.188237	0.356248	-0.60986
C	2.973563	1.022067	0.294664
N	2.64021	2.050381	0.980457
C	4.347812	0.453282	0.442183
C	5.478574	1.394516	0.763482
C	4.980112	0.459771	1.810058
H	0.407496	0.056183	-1.635033
H	0.716308	1.744446	-1.181229
H	0.184213	0.574569	0.057287
H	2.533444	-0.518205	-0.976081
H	1.676876	2.33572	0.805643
H	4.580018	-0.394658	-0.210214
H	5.191603	2.445139	0.859929
H	6.449232	1.201894	0.298584
H	5.595569	-0.399099	2.091358
H	4.364521	0.887857	2.605613
