15

C	1.055243	-0.08702	0.170054
C	2.538788	0.05873	0.013889
N	3.113135	1.186324	0.171778
C	4.55072	1.240551	0.02921
C	5.207735	-0.128045	0.123055
O	4.503019	-1.032568	-0.70094
N	3.203413	-1.141793	-0.204669
H	0.812539	-0.841493	0.934611
H	0.586155	-0.402896	-0.776505
H	0.640154	0.882161	0.468736
H	4.795838	1.703554	-0.943937
H	4.964381	1.915689	0.799304
H	6.241543	-0.124126	-0.250736
H	5.207398	-0.498229	1.165709
H	2.721259	-1.838189	-0.763421
