15

C	1.215823	0.059222	-0.597106
N	2.506797	0.041215	0.050245
C	3.067081	-1.245527	0.373685
C	3.150987	1.177569	0.339925
N	2.676553	2.353834	0.074065
C	3.493523	3.414699	0.432844
O	4.603315	3.356922	0.915662
H	0.931067	1.105074	-0.764382
H	0.46053	-0.434478	0.036705
H	1.26045	-0.472077	-1.562117
H	2.402108	-1.804507	1.054457
H	4.041056	-1.117905	0.864348
H	3.210859	-1.852517	-0.536392
H	4.131532	1.049153	0.830162
H	3.010418	4.396285	0.221688
