14

C	2.96215	-1.162509	0.47092
N	2.366587	0.045284	-0.02944
C	3.062686	1.239031	-0.017803
C	2.49379	2.48656	-0.193506
S	3.671492	3.739894	-0.171635
C	4.941198	2.622672	0.081088
C	4.484862	1.332793	0.147216
H	2.229678	-1.979694	0.408178
H	3.309569	-1.092304	1.521526
H	3.825812	-1.460775	-0.145997
H	1.375242	0.139526	0.143862
H	1.441929	2.71915	-0.35303
H	5.969882	2.967753	0.177551
H	5.141106	0.478109	0.309061
