12

N	0.931995	0.022709	-0.223563
C	2.321883	0.010838	-0.084308
C	3.168703	1.105617	-0.032383
N	4.459118	0.632156	0.032514
C	4.45779	-0.725509	0.027661
C	3.146128	-1.152082	-0.04501
H	0.501445	0.868767	0.132401
H	0.489889	-0.783624	0.203476
H	2.949992	2.170845	-0.049115
H	5.282466	1.212625	0.081012
H	5.381749	-1.297482	0.077619
H	2.807651	-2.186291	-0.076075
