15

O	0.341312	-0.757153	0.250514
C	1.69774	-0.974369	0.441912
C	2.422975	-1.226266	-0.88828
C	1.861676	-2.408339	-1.611971
C	2.563374	-3.477012	-1.990679
C	2.31605	0.197576	1.163696
O	1.654043	1.146239	1.500059
H	0.15551	0.103625	0.662336
H	1.8712	-1.860474	1.093678
H	3.503665	-1.359255	-0.709351
H	2.29293	-0.318452	-1.505281
H	0.785302	-2.360116	-1.812769
H	3.638855	-3.556128	-1.797222
H	2.090925	-4.314398	-2.511079
H	3.413133	0.142261	1.368629
