13

C	0.924163	-0.041588	-0.002831
C	2.405789	0.052036	-0.00325
C	3.237823	1.160013	-0.001245
O	2.800195	2.440134	0.002425
C	4.553489	0.641063	-0.00366
N	4.538784	-0.686741	-0.00712
N	3.255779	-1.012453	-0.006674
H	0.501659	0.971641	0.008538
H	0.540837	-0.57536	0.882496
H	0.538882	-0.555848	-0.898858
H	3.560463	3.028808	0.004234
H	5.49915	1.184112	-0.003056
H	2.992808	-1.989107	-0.008751
