15

C	0.989126	-0.025192	0.183998
C	2.477052	0.058898	-0.103364
N	2.711372	0.037252	-1.515381
C	3.240272	1.095183	0.804121
N	3.858073	-0.039053	1.463519
C	3.288092	-1.00784	0.686999
O	3.387913	-2.202557	0.660076
H	0.788734	-0.028355	1.265436
H	0.585821	-0.948752	-0.254452
H	0.458803	0.833008	-0.26147
H	3.701687	0.056947	-1.745044
H	2.258779	0.820104	-1.982038
H	2.608326	1.721642	1.456297
H	3.942546	1.735417	0.243545
H	4.493094	-0.105902	2.251068
