11

O	2.549097	-1.185216	0.047007
C	2.090381	-0.069853	-0.010035
C	2.875618	1.160406	0.003694
C	2.40976	2.458975	-0.059885
C	3.453252	3.413374	-0.024437
C	4.690973	2.818861	0.065579
S	4.600308	1.111985	0.107123
H	0.986552	0.109034	-0.080876
H	1.347802	2.703264	-0.130549
H	3.305089	4.493454	-0.063629
H	5.661098	3.314516	0.109768
