14

N	0.488138	0.593512	-0.048006
C	1.779573	0.242923	0.074277
C	2.87257	1.031425	-0.107744
C	4.192561	0.458891	0.070604
O	4.409275	-0.710729	0.366607
C	5.3975	1.369196	-0.113716
O	6.571107	0.664722	0.065591
H	-0.249816	-0.072246	0.121566
H	0.221712	1.534228	-0.303334
H	1.965784	-0.801168	0.352196
H	2.781816	2.086098	-0.384305
H	5.294428	2.209902	0.605954
H	5.332704	1.826019	-1.123283
H	6.265707	-0.233953	0.292543
