15

N	5.17257	-0.547583	-2.586455
N	5.199384	0.636603	-1.905351
C	4.161691	1.359352	-1.878012
O	4.073135	2.496772	-1.165353
C	5.209733	2.87117	-0.44516
C	6.204799	3.767029	-1.106134
C	5.270826	4.302525	-0.049762
H	6.112256	-0.786989	-2.883517
H	4.544701	-0.559501	-3.393698
H	3.217365	1.146074	-2.405846
H	5.576783	2.09437	0.233939
H	5.998429	4.045728	-2.142571
H	7.26312	3.631326	-0.86743
H	5.666211	4.5522	0.938106
H	4.443148	4.932625	-0.385946
