18

N	1.006143	0.05926	0.082689
C	2.453893	0.032963	0.028626
C	3.049986	-1.104079	0.907887
C	3.863488	-0.259259	1.892843
C	4.541423	0.75669	0.944672
C	3.087156	1.235502	0.748216
C	2.873495	0.877163	2.234346
H	0.624182	-0.79939	-0.309671
H	0.646448	0.818056	-0.494246
H	2.855891	-0.027511	-1.005148
H	3.676935	-1.804982	0.334949
H	2.250979	-1.676027	1.404881
H	4.426627	-0.795394	2.67053
H	5.088265	0.36904	0.068038
H	5.159137	1.494147	1.478545
H	2.849317	2.231426	0.344477
H	3.308834	1.625774	2.913281
H	1.853221	0.609111	2.546425
