18

O	2.632627	-0.532252	-0.994802
C	2.144001	0.221002	0.089312
C	2.64507	1.636873	-0.073667
N	4.084673	1.665677	-0.024677
C	4.669324	2.956639	-0.299971
C	6.158992	2.913498	-0.162794
C	7.025226	3.32158	-1.09068
H	2.470376	-1.464007	-0.823488
H	2.512709	-0.173119	1.056586
H	1.035915	0.225052	0.12161
H	2.232802	2.258496	0.741365
H	2.229606	2.046296	-1.023596
H	4.441363	0.971248	-0.679134
H	4.268821	3.674872	0.44186
H	4.39452	3.369403	-1.297707
H	6.524099	2.498636	0.784787
H	6.684361	3.724124	-2.050659
H	8.105606	3.274342	-0.927054
