15

C	1.596984	2.629451	-1.24452
C	2.893567	1.965005	-0.962047
N	3.9359	2.638767	-0.669154
N	5.043689	1.847265	-0.438137
C	6.103419	2.489335	-0.148199
C	7.346291	1.708207	0.118359
O	7.154988	0.341307	0.010162
H	1.244253	2.370255	-2.256521
H	1.697275	3.719911	-1.161089
H	0.823036	2.277862	-0.542297
H	2.950607	0.862444	-1.007837
H	6.115236	3.590179	-0.091715
H	7.711387	1.991912	1.129072
H	8.128908	2.069519	-0.583575
H	6.218019	0.234472	-0.226934
