17

C	1.66227	0.044491	-0.786933
C	1.93015	-0.052474	0.699182
C	0.534412	0.055438	0.200837
C	-0.367417	1.250596	0.401631
C	-1.659267	0.737773	-0.22798
C	-1.631748	-0.730805	0.187976
O	-0.267668	-1.093759	0.278428
H	1.921274	0.97137	-1.307869
H	1.781382	-0.869181	-1.3751
H	2.231336	-1.026648	1.09321
H	2.369432	0.808111	1.212439
H	-0.509544	1.442849	1.478762
H	0.024536	2.166127	-0.06188
H	-2.562911	1.263692	0.11239
H	-1.603514	0.826371	-1.324867
H	-2.142031	-1.393055	-0.531048
H	-2.118604	-0.869965	1.172682
