14

C	3.118219	-1.358212	-0.129626
C	2.63446	0.06194	-0.193913
O	1.46888	0.375894	-0.402263
N	3.542121	1.068699	-0.01205
O	3.014526	2.325725	-0.089924
C	4.900422	0.990462	0.232933
C	5.703958	2.047475	0.390904
H	3.87866	-1.560826	-0.898488
H	2.251891	-2.006343	-0.30249
H	3.551962	-1.593672	0.85363
H	2.071577	2.10626	-0.269464
H	5.271545	-0.03381	0.288604
H	5.319	3.065751	0.333244
H	6.764839	1.889568	0.585333
