15

C	1.033407	1.578862	0.5525
C	2.353994	1.738188	0.676513
C	3.294886	1.064438	-0.263667
O	2.89743	0.346541	-1.160661
C	4.749234	1.310756	-0.056988
C	5.687962	0.169121	-0.387283
C	5.618282	1.335196	-1.29712
H	0.324318	2.063596	1.227735
H	0.644265	0.944054	-0.249916
H	2.778271	2.365411	1.467383
H	5.023086	1.971791	0.769534
H	5.199737	-0.752537	-0.715958
H	6.564441	0.042578	0.252974
H	6.445484	2.049624	-1.312418
H	5.082542	1.20327	-2.241118
