18

C	0.915873	0.017808	-0.135016
C	2.415875	0.007729	0.021891
N	2.799013	-0.058623	1.406325
C	3.238686	-0.656428	-1.062325
C	3.218534	0.853473	-0.920488
C	4.471527	1.588235	-0.529423
O	5.338752	1.763972	-1.618949
H	0.622028	0.099495	-1.191284
H	0.482989	0.863483	0.420609
H	0.475757	-0.911933	0.263802
H	3.80938	-0.04748	1.516042
H	2.479847	-0.941769	1.80322
H	2.741567	-1.117226	-1.921436
H	4.148694	-1.171974	-0.734061
H	2.638649	1.391161	-1.679816
H	4.981706	1.065909	0.306666
H	4.22172	2.59531	-0.159073
H	5.434333	0.903487	-2.042595
