16

C	3.096209	-0.908012	-1.164212
C	2.899787	-0.150628	0.138789
C	3.218723	1.345361	0.070965
O	2.803481	1.966874	1.248498
C	4.672885	1.604717	-0.202494
N	5.30699	2.340085	0.614974
O	6.616856	2.533564	0.294198
H	2.76104	-1.950954	-1.066161
H	4.151712	-0.937754	-1.478204
H	2.517607	-0.453003	-1.984572
H	3.506608	-0.588061	0.949388
H	1.850655	-0.222082	0.467376
H	2.660248	1.764957	-0.796808
H	3.563341	2.475766	1.570589
H	5.162348	1.179661	-1.090371
H	6.944329	3.101047	1.000216
