13

O	1.010312	2.442668	-0.094367
N	2.372985	2.488673	-0.089069
C	2.907685	1.342104	0.031602
C	4.392586	1.195546	0.058538
C	5.132731	2.525811	-0.072268
C	6.580397	2.363172	-0.041387
N	7.728318	2.217975	-0.015802
H	0.752113	3.365596	-0.189281
H	2.282963	0.439122	0.118902
H	4.700283	0.509453	-0.750045
H	4.686202	0.688833	0.99492
H	4.830914	3.209943	0.736494
H	4.847901	3.029114	-1.009917
