18

C	0.869113	0.011321	-0.215099
C	2.340726	0.19176	0.062074
C	2.736121	-0.006063	1.503546
O	3.195521	-0.41385	-0.901314
C	3.134325	1.00471	-0.872489
C	4.413494	1.724552	-0.553156
N	5.271399	1.687988	-1.721308
H	0.655266	0.138874	-1.285472
H	0.26829	0.737078	0.354243
H	0.547941	-1.000264	0.080281
H	3.822424	0.059263	1.641501
H	2.412493	-1.002864	1.842678
H	2.250316	0.741783	2.149046
H	2.605627	1.442417	-1.7335
H	4.862	1.290335	0.361666
H	4.169466	2.776039	-0.32063
H	5.493883	0.718253	-1.941124
H	6.155435	2.155128	-1.535532
