16

C	0.99642	-0.537355	-0.000283
C	2.449855	-0.092924	-0.00487
C	2.592374	1.408246	0.098089
O	3.97953	1.710955	0.073456
N	4.205742	3.054483	0.161892
C	4.815656	3.542223	1.279654
O	5.282217	4.650239	1.36519
H	0.916112	-1.631593	-0.07504
H	0.439476	-0.105187	-0.847032
H	0.482618	-0.22948	0.924701
H	2.955304	-0.428169	-0.925971
H	2.999084	-0.553551	0.833009
H	2.141579	1.791518	1.033068
H	2.082505	1.912911	-0.74555
H	4.345606	3.532496	-0.727015
H	4.796742	2.788667	2.104389
