13

C	1.006462	0.123758	0.066687
C	2.500983	-0.071405	-0.139807
C	3.267928	1.220337	-0.067469
C	3.882921	1.691004	1.175758
O	4.660508	1.132769	0.138982
H	0.462705	-0.828889	-0.01356
H	0.582678	0.810339	-0.683772
H	0.792057	0.548357	1.060316
H	2.691562	-0.536366	-1.12279
H	2.916037	-0.762071	0.612649
H	2.96759	1.984488	-0.802314
H	3.788961	1.07907	2.083877
H	4.018329	2.76631	1.353483
