17

C	0.870091	0.030961	-0.208725
C	2.344571	0.197423	0.058793
C	2.754431	-0.036476	1.490666
O	3.187095	-0.389127	-0.926889
C	3.132854	1.031072	-0.864278
C	4.443549	1.699569	-0.558023
O	5.346098	1.509875	-1.613836
H	0.644637	0.18727	-1.272827
H	0.279605	0.74414	0.386406
H	0.548693	-0.98676	0.063893
H	3.84241	0.016427	1.620207
H	2.427127	-1.038968	1.808185
H	2.279997	0.698971	2.158158
H	2.59657	1.486642	-1.711415
H	4.850839	1.329495	0.400897
H	4.289437	2.785478	-0.450218
H	5.387427	0.558378	-1.769462
