16

C	1.23667	-0.046449	0.039149
N	2.661749	-0.113189	-0.1636
C	3.145013	-0.693642	-1.390813
C	3.250447	0.767364	-1.139411
C	4.506377	1.473887	-0.745004
C	5.842819	0.938222	-1.002279
O	5.306433	1.970099	-1.799063
H	1.002493	0.755626	0.756033
H	0.87962	-0.996143	0.466699
H	0.664322	0.146031	-0.893803
H	2.405789	-1.008031	-2.14085
H	4.021469	-1.345288	-1.310267
H	2.562426	1.397598	-1.7253
H	4.38505	2.166951	0.101559
H	5.9514	-0.036003	-1.494885
H	6.674383	1.222156	-0.343615
