13

C	0.940531	-0.05933	0.042237
C	2.151391	-0.02767	0.052743
C	3.609196	0.026571	0.049859
C	4.331298	1.102911	0.896346
C	5.318011	-0.017621	1.261145
N	4.311646	-0.992546	0.837888
H	-0.133494	-0.092115	0.040443
H	3.950902	0.084845	-1.005327
H	3.718284	1.420139	1.750153
H	4.713426	1.983684	0.36361
H	6.228363	0.013629	0.629812
H	5.631517	-0.098948	2.31513
H	4.63132	-1.815409	0.332682
