19

N	1.107183	-0.072873	0.397727
C	2.538586	-0.098478	0.150793
C	3.188469	1.281265	0.299592
C	2.585271	2.085355	1.454242
N	2.693806	1.343722	2.707507
C	4.703318	1.121563	0.472659
O	5.042754	0.377091	1.604472
H	0.720965	-1.012773	0.345262
H	0.627905	0.471239	-0.318404
H	2.826718	-0.508435	-0.840094
H	3.005227	-0.762346	0.896406
H	3.016533	1.866534	-0.623436
H	1.542493	2.361403	1.210193
H	3.150517	3.027295	1.553825
H	1.995973	0.59792	2.692381
H	2.469829	1.939497	3.501362
H	5.161186	2.13474	0.489813
H	5.124328	0.608283	-0.411294
H	4.406471	0.648378	2.299832
