14

C	1.062304	0.076906	0.275582
C	2.50991	-0.205198	0.015708
C	2.987773	-1.434211	-0.200948
C	3.427134	1.001228	-0.009986
C	3.429774	1.758319	1.238964
C	3.421989	2.375852	2.280824
H	0.934336	0.585487	1.245315
H	0.462517	-0.843288	0.279985
H	0.652563	0.756154	-0.49171
H	2.328431	-2.306788	-0.20197
H	4.050889	-1.61278	-0.385536
H	3.111652	1.677368	-0.826741
H	4.45649	0.687563	-0.246969
H	3.417599	2.92085	3.206512
