16

C	1.793884	2.905821	-1.328579
C	3.233176	2.599823	-1.676921
O	4.098902	3.685728	-1.33966
C	4.49184	3.774784	-0.067343
O	4.19099	2.987207	0.792693
C	5.31391	5.01663	0.171233
N	6.097511	4.875216	1.368532
H	1.140551	2.088114	-1.668777
H	1.462823	3.835877	-1.814293
H	1.674823	3.009562	-0.240537
H	3.364352	2.462337	-2.759389
H	3.578765	1.692631	-1.158163
H	4.570373	5.846582	0.169688
H	5.94695	5.185387	-0.715622
H	5.547171	4.390465	2.075614
H	6.366568	5.779756	1.742164
