16

C	0.907698	-0.036669	0.171287
C	2.417836	0.025268	0.004785
C	3.190651	1.104996	0.818218
C	4.167497	-0.020266	1.189216
N	3.154471	-0.995897	0.778933
C	2.789731	0.04784	-1.417211
C	3.110575	0.043494	-2.586416
H	0.663865	-0.069261	1.242662
H	0.505507	-0.94395	-0.304396
H	0.423578	0.837359	-0.290344
H	2.595708	1.455025	1.673299
H	3.580004	1.963908	0.257024
H	5.076342	-0.004239	0.558519
H	4.477346	-0.094492	2.244719
H	3.47792	-1.802717	0.249764
H	3.394631	0.039152	-3.622541
