13

C	-1.5168	0.688602	0.321856
C	-1.216759	-0.635414	-0.271006
C	-0.258526	-1.547642	0.361905
C	0.999249	-1.13233	0.590427
C	1.410868	0.16797	0.069534
N	0.683356	0.958227	-0.629617
N	-0.662542	0.6538	-0.840246
H	-2.497281	1.148803	0.162147
H	-1.045258	0.91404	1.286256
H	-1.978924	-1.095763	-0.910018
H	-0.577176	-2.568599	0.589545
H	1.74986	-1.782178	1.04449
H	2.456222	0.478812	0.188737
