15

C	1.597902	-0.16733	-0.05469
O	0.751833	-1.156837	0.426155
C	-0.343112	-1.464083	-0.404116
C	-1.503425	-0.529344	-0.196382
C	-1.38237	0.745474	0.183525
C	-0.066825	1.45595	0.351941
O	0.927862	0.958552	-0.512511
H	2.195688	-0.515866	-0.919918
H	2.273442	0.067132	0.791396
H	-0.651673	-2.488868	-0.143669
H	-0.042487	-1.484458	-1.472231
H	-2.50315	-0.950943	-0.346542
H	-2.285732	1.338216	0.36325
H	0.266675	1.417996	1.409825
H	-0.193818	2.520548	0.098597
