18

N	1.956595	-0.273955	1.724132
C	2.100047	-0.141499	0.280065
C	3.360303	0.635075	-0.110786
C	4.677222	-0.088261	0.033457
C	5.41958	-0.374024	-1.042673
C	5.149294	-0.464277	1.422231
O	4.39999	-1.473905	2.02622
H	1.142938	-0.837645	1.961856
H	1.820517	0.637881	2.158415
H	1.229117	0.359246	-0.187316
H	2.153708	-1.15293	-0.153637
H	3.389366	1.56587	0.488172
H	3.245342	0.951516	-1.15884
H	5.101321	-0.099688	-2.053703
H	6.379605	-0.89012	-0.947759
H	5.172868	0.463159	2.039691
H	6.191619	-0.815317	1.355624
H	3.487915	-1.121565	2.129139
