17

C	1.031963	-0.00249	-0.121325
C	2.560324	-0.079663	-0.00222
C	2.948707	-0.765186	1.303653
C	3.143087	-0.850556	-1.195109
C	3.132412	1.345437	0.007108
O	2.89496	2.076089	-1.098009
O	3.750725	1.818997	0.91625
H	0.702502	0.461329	-1.065489
H	0.596731	0.577102	0.706815
H	0.600144	-1.01486	-0.091865
H	2.550743	-0.216025	2.168193
H	4.041136	-0.804271	1.417426
H	2.553605	-1.791922	1.324498
H	2.861395	-0.408878	-2.165748
H	2.765516	-1.884433	-1.192817
H	4.242024	-0.888198	-1.148026
H	2.400396	1.556279	-1.742224
