15

O	0.86288	-0.036155	0.176408
C	2.253219	-0.013848	0.07192
C	3.048288	1.062943	0.868446
C	4.119349	-0.001637	1.163156
C	3.080081	-1.088792	0.838049
C	2.603365	0.012091	-1.350225
C	2.939951	0.034441	-2.512651
H	0.64282	-0.054615	1.113888
H	2.482267	1.331017	1.775706
H	3.332163	1.98425	0.340448
H	4.929816	0.021113	0.419775
H	4.565334	-0.009334	2.167742
H	3.390358	-1.986539	0.284856
H	2.522102	-1.397559	1.737304
H	3.231286	0.054675	-3.54657
