15

C	0.907168	0.002889	-0.243294
C	2.229384	0.008421	0.026413
C	2.985782	1.252397	0.181319
C	4.300694	1.265977	0.44961
C	5.109494	0.020517	0.614322
C	4.311131	-1.23169	0.449858
C	2.996143	-1.229155	0.181603
H	0.356289	-0.934082	-0.357423
H	0.348564	0.935243	-0.357695
H	2.439696	2.193774	0.06965
H	4.822354	2.222386	0.556224
H	5.956572	0.024006	-0.100778
H	5.605341	0.022677	1.605735
H	4.840745	-2.183678	0.556688
H	2.457893	-2.175063	0.070149
