17

C	0.857124	0.674481	-1.104174
C	2.34802	0.611416	-1.049825
C	3.101337	1.196499	-0.115661
C	4.610398	1.153652	-0.023282
C	5.298177	0.33743	-1.117187
C	5.142972	2.519344	0.034208
C	5.580935	3.647869	0.078575
H	0.51369	1.127303	-2.049713
H	0.440915	1.264001	-0.27378
H	0.413158	-0.33424	-1.064315
H	2.834136	0.038812	-1.848626
H	2.611576	1.776792	0.676418
H	4.856595	0.686248	0.951209
H	5.096854	0.765438	-2.110724
H	4.940657	-0.702647	-1.105742
H	6.386498	0.331988	-0.963919
H	5.968426	4.648913	0.115909
