12

C	3.102186	-1.055115	-0.107172
C	2.513667	0.148449	-0.077866
C	3.165781	1.459758	-0.028675
C	2.463052	2.607272	-0.082235
C	4.652437	1.572071	0.092411
O	5.250017	2.618249	0.106502
H	2.500164	-1.965735	-0.146538
H	4.186376	-1.191812	-0.097914
H	1.417646	0.186953	-0.098073
H	1.372916	2.609609	-0.16654
H	2.991095	3.563537	-0.043462
H	5.208894	0.608313	0.179511
