15

O	1.472999	0.453143	1.832025
N	2.673137	0.408745	1.173192
C	2.799133	1.350184	0.3276
C	4.046535	1.479518	-0.479285
C	4.72181	2.810704	-0.245901
C	5.43508	3.533914	-1.31977
N	4.110717	3.960354	-0.894941
H	1.51377	-0.310069	2.417218
H	1.999164	2.095246	0.18956
H	3.795169	1.40635	-1.551519
H	4.725438	0.649865	-0.228668
H	5.104438	2.947631	0.774514
H	5.488462	3.098127	-2.32385
H	6.308205	4.135744	-1.043094
H	4.163764	4.789305	-0.30591
