13

C	0.922645	0.050451	0.008458
C	2.41334	0.022848	-0.004992
C	3.288217	1.074586	-0.049297
C	4.648602	0.611823	-0.050783
N	5.733714	1.452214	-0.146416
N	4.815405	-0.690545	-0.004709
S	3.3301	-1.438653	0.023826
H	0.557956	1.08611	-0.0208
H	0.519835	-0.428068	0.914925
H	0.503107	-0.483768	-0.858349
H	2.986669	2.122065	-0.09272
H	5.625929	2.366436	0.272138
H	6.618091	1.00829	0.070479
