15

O	2.792435	-0.86731	-0.649037
C	2.327503	0.248507	0.059437
C	3.413136	1.310446	0.018233
C	3.679276	1.837484	-1.404392
C	2.969658	3.164224	-1.359998
C	2.628047	3.408284	-0.09206
O	2.947787	2.428848	0.788972
H	2.089692	-1.521402	-0.690981
H	2.106192	0.019293	1.119808
H	1.409492	0.683333	-0.3854
H	4.319722	0.915416	0.5009
H	3.288464	1.132176	-2.15533
H	4.75717	1.956946	-1.611869
H	2.807919	3.834382	-2.202533
H	2.139946	4.280043	0.346497
