17

C	1.513249	-0.40568	-0.522573
N	2.870456	0.078942	-0.550014
C	3.102955	1.259971	0.24198
C	4.606838	1.593758	0.270387
N	5.435085	0.525366	0.802418
C	5.053867	1.966891	-1.080496
C	5.369451	2.255732	-2.213897
H	1.414514	-1.287688	-1.172965
H	0.75131	0.339481	-0.839284
H	1.247544	-0.723841	0.499253
H	3.170104	0.254198	-1.508047
H	2.784772	1.054714	1.280323
H	2.526053	2.150854	-0.095077
H	4.739835	2.485654	0.908526
H	5.137205	-0.340694	0.350706
H	5.223473	0.409471	1.792155
H	5.676349	2.520942	-3.208665
