15

C	1.021996	-0.031865	0.254031
N	2.445712	0.033823	0.062876
C	3.120753	-1.20696	-0.228096
C	3.012408	1.270185	-0.181019
N	2.414106	2.402687	-0.232383
C	4.453723	1.284546	-0.360244
C	5.653372	1.338442	-0.519614
H	0.689851	0.722566	0.985167
H	0.756427	-1.019993	0.654208
H	0.451788	0.122286	-0.683322
H	2.92162	-1.945752	0.56554
H	4.203958	-1.042401	-0.27808
H	2.795154	-1.643179	-1.191896
H	1.404113	2.299368	-0.123811
H	6.715839	1.405647	-0.667346
