17

C	1.125055	2.352206	0.468746
N	2.423432	2.19774	-0.113246
C	2.863666	1.023525	-0.3117
N	4.053142	0.759913	-0.92796
C	4.985221	1.819209	-1.247888
C	5.895885	2.161456	-0.105534
C	7.227036	2.096039	-0.147398
H	0.455014	2.89839	-0.218642
H	1.184441	2.961459	1.387202
H	0.62662	1.394539	0.730622
H	2.304397	0.108234	-0.026122
H	4.434873	-0.167142	-0.796088
H	4.374507	2.698095	-1.508563
H	5.570998	1.533693	-2.136938
H	5.386588	2.476548	0.813391
H	7.754075	1.785523	-1.056692
H	7.84298	2.359453	0.716859
