17

C	3.445237	-0.368222	-1.544646
C	2.964908	0.181523	-0.204062
C	3.288956	1.637084	-0.001676
C	2.339946	2.573089	0.141505
C	4.741591	2.007324	0.056519
N	5.03921	3.277935	-0.373706
N	5.676296	1.256835	0.506962
H	3.193653	-1.43467	-1.64739
H	4.536599	-0.265183	-1.644931
H	2.975346	0.172153	-2.38041
H	3.41909	-0.405746	0.614487
H	1.877417	0.043239	-0.10242
H	1.27847	2.308675	0.118115
H	2.595822	3.620476	0.320734
H	4.475547	3.661973	-1.120208
H	6.030968	3.479385	-0.424655
H	5.291395	0.384278	0.866462
