20

C	2.80416	-0.754388	1.126532
N	2.685278	0.058765	-0.062866
C	3.059086	1.476731	0.019137
C	2.535663	2.143543	-1.250984
C	2.525292	2.200946	1.253749
C	4.601697	1.507384	0.002317
O	5.093332	0.700384	-1.019199
H	2.564119	-1.799192	0.876745
H	2.151559	-0.451706	1.969092
H	3.842649	-0.745475	1.492731
H	1.761434	-0.037495	-0.474541
H	2.985915	1.673275	-2.136519
H	2.792569	3.21293	-1.262033
H	1.438155	2.058144	-1.319862
H	2.904969	1.759808	2.187776
H	1.42404	2.170444	1.284613
H	2.833223	3.25784	1.240639
H	4.982714	1.193146	0.99872
H	4.947273	2.544442	-0.150346
H	4.428163	-0.011987	-1.070713
