17

O	2.643947	3.411087	-0.402132
C	2.204817	2.08151	-0.521214
C	3.036629	1.214991	0.401351
C	4.517537	1.259279	0.089007
C	5.325924	2.50714	0.473868
O	6.29965	1.718662	1.160359
C	5.4962	0.551183	1.036313
H	2.162205	3.955088	-1.031564
H	2.314616	1.710871	-1.562312
H	1.133134	1.978809	-0.255128
H	2.670323	0.176102	0.329079
H	2.871011	1.53782	1.444065
H	4.691243	0.972057	-0.96115
H	4.784883	3.195102	1.14772
H	5.759052	3.09684	-0.351461
H	6.054938	-0.3104	0.630061
H	5.04144	0.24749	2.000658
