13

C	0.857393	0.056131	-0.00342
C	2.345757	-0.00406	-0.00434
C	3.21737	1.061	-0.002025
O	2.768061	2.338778	0.00218
C	4.591628	0.670894	-0.004494
C	4.742844	-0.688852	-0.008837
S	3.228013	-1.493438	-0.009635
H	0.544839	1.109187	0.007209
H	0.421141	-0.436657	0.880533
H	0.420731	-0.418546	-0.897126
H	3.51944	2.938568	0.004363
H	5.427521	1.374059	-0.003127
H	5.671502	-1.257713	-0.01144
