16

C	0.933539	-0.006114	0.047412
C	2.444579	0.012336	0.033269
C	3.189643	1.058929	0.88807
C	4.241205	-0.024216	1.254185
C	3.214164	-1.09223	0.787888
C	5.443159	0.027443	0.435665
N	6.394416	0.065885	-0.224079
H	0.538853	-0.873599	-0.504792
H	0.517614	0.901517	-0.417883
H	0.548979	-0.061154	1.079163
H	2.812578	0.065094	-1.005493
H	2.610232	1.340854	1.780783
H	3.555116	1.972469	0.397983
H	4.547256	-0.0701	2.31119
H	3.599586	-1.948107	0.21571
H	2.641391	-1.466917	1.650118
