20

C	1.699481	1.556252	-0.921928
C	3.080021	1.132658	-0.480644
O	3.816108	2.272147	-0.135874
C	5.125397	2.012657	0.281146
C	5.81602	3.34435	0.555018
C	7.24909	3.133495	1.012965
N	5.776789	4.250515	-0.578033
H	1.091577	0.681205	-1.194884
H	1.763046	2.223824	-1.794407
H	1.188598	2.099442	-0.112892
H	3.593243	0.572604	-1.291626
H	3.014615	0.438693	0.384135
H	5.684787	1.459474	-0.506521
H	5.132613	1.373427	1.189791
H	5.251409	3.826254	1.374335
H	7.842407	2.63383	0.227809
H	7.30006	2.510765	1.919107
H	7.722622	4.102435	1.224144
H	4.816155	4.298904	-0.91583
H	6.319515	3.854219	-1.3465
