16

C	1.112969	0.258102	0.085159
C	2.604645	-0.012192	-0.123338
C	2.831036	-0.817305	-1.329081
N	3.007801	-1.445081	-2.285461
C	3.417539	1.268138	-0.183086
C	3.854856	1.916616	1.096742
C	4.865626	1.266259	0.196518
H	0.971768	0.829973	1.013696
H	0.539718	-0.67696	0.155533
H	0.705335	0.849314	-0.748339
H	2.978622	-0.617041	0.722729
H	3.12302	1.935618	-1.000658
H	3.604971	1.412276	2.035181
H	3.832003	3.00778	1.159099
H	5.548192	1.902223	-0.372444
H	5.304719	0.31794	0.519521
