15

C	1.472761	-0.354796	-0.11572
C	1.813409	0.73616	-0.804415
C	3.194284	1.233996	-0.936751
C	3.722448	1.857352	-2.172215
N	3.356959	2.697401	-1.046361
N	4.490629	3.132358	-0.328739
C	4.245781	4.132443	0.409116
H	0.435081	-0.691852	-0.057127
H	2.222363	-0.952526	0.412536
H	1.04927	1.326039	-1.323112
H	3.947936	0.736058	-0.315053
H	3.084534	1.971525	-3.054009
H	4.793333	1.736147	-2.364838
H	5.065378	4.536318	1.014511
H	3.249513	4.600097	0.456788
