13

C	2.89025	-1.118116	0.535764
N	2.327844	0.077887	-0.040246
C	3.037884	1.252823	-0.011243
C	2.617925	2.549412	-0.169303
O	3.732364	3.341342	-0.115443
C	4.743555	2.500126	0.077006
N	4.406913	1.25362	0.150419
H	2.285053	-1.98523	0.235091
H	2.951799	-1.09674	1.641784
H	3.909411	-1.263027	0.154092
H	1.330292	0.191698	0.080174
H	1.662985	3.036771	-0.332009
H	5.742014	2.927284	0.158685
