16

C	0.999975	0.036319	-0.062196
C	2.498589	-0.01055	-0.00922
C	3.331237	-0.762727	-1.007949
C	2.764098	-1.505154	-2.106464
C	2.297163	-2.156339	-3.01546
N	3.244067	0.685755	-1.019609
C	4.420602	1.420999	-0.632656
H	0.628949	0.978514	0.370422
H	0.562537	-0.797278	0.508214
H	0.649144	-0.028181	-1.1012
H	2.93263	-0.007016	1.003984
H	4.257199	-1.199214	-0.60379
H	1.881464	-2.724367	-3.826975
H	4.127749	2.427963	-0.298395
H	5.088258	1.532835	-1.500599
H	4.995079	0.93922	0.187853
