11

O	2.652612	-1.102388	-0.869421
C	2.446928	-0.192721	-0.109386
C	1.408597	-0.158038	0.908856
C	0.644782	-0.062129	1.846094
C	3.3333	1.044275	-0.082687
C	3.135339	2.136009	-1.023327
O	2.806368	2.252139	0.359615
H	-0.059095	0.029751	2.653694
H	4.340211	0.756631	0.264315
H	2.266568	2.090965	-1.691515
H	3.98229	2.737626	-1.371018
