14

C	0.948931	0.046281	-0.003633
C	2.437437	0.035198	0.000183
C	3.286348	1.089463	-0.000796
C	4.668461	0.610989	0.003819
C	4.673097	-0.738728	0.007628
C	3.257776	-1.223686	0.005652
H	0.555818	1.072727	-0.005708
H	0.537328	-0.471908	0.879612
H	0.541907	-0.473607	-0.888027
H	2.990231	2.140895	-0.004481
H	5.548487	1.257231	0.004129
H	5.547427	-1.390644	0.011643
H	3.035021	-1.85671	-0.874316
H	3.030932	-1.851742	0.888145
