14

N	0.941911	-0.039289	-0.148153
C	2.377822	-0.195075	-0.029912
C	3.074708	1.162472	-0.076744
C	4.549201	1.069794	0.149903
C	5.493195	1.435667	-0.718553
H	0.477548	-0.941714	-0.074756
H	0.705103	0.322701	-1.070923
H	2.839441	-0.851955	-0.799294
H	2.596004	-0.672155	0.942315
H	2.608347	1.800549	0.694747
H	2.874784	1.64796	-1.048629
H	4.857441	0.649401	1.116856
H	5.235721	1.857327	-1.696146
H	6.556994	1.333516	-0.486431
