11

N	1.018797	0.062738	-0.003648
C	2.354795	-0.085895	-0.000806
C	3.161317	-1.176572	-0.001721
C	4.540127	-0.664711	0.002147
O	5.575218	-1.269319	0.002877
N	4.505783	0.81126	0.005545
C	3.272516	1.107582	0.003714
H	0.40229	-0.736543	-0.005056
H	0.600194	0.98103	0.00103
H	2.902072	-2.232146	-0.004872
H	2.908952	2.144876	0.005311
