19

C	2.013979	-0.4389	-1.270282
O	2.252723	0.116008	-0.012943
C	3.018652	1.275898	-0.049921
C	2.386292	2.597185	-0.536054
C	3.140896	3.296819	0.610849
C	3.271874	1.927544	1.312179
C	4.516235	1.574979	2.093613
H	1.413672	-1.349193	-1.130966
H	2.954722	-0.715849	-1.787856
H	1.453923	0.249741	-1.933949
H	3.980052	1.092114	-0.57809
H	1.300404	2.574738	-0.351329
H	2.572507	2.928846	-1.568314
H	4.123301	3.672544	0.282492
H	2.624846	4.103562	1.151434
H	2.368299	1.745483	1.919497
H	5.422926	1.745565	1.489947
H	4.503876	0.515629	2.393182
H	4.603635	2.182357	3.007712
