13

O	0.968736	0.006641	0.034584
S	2.418762	1.2e-05	0.189955
O	3.036212	-0.004505	1.510059
C	3.089032	-1.341435	-0.848324
C	3.371281	-0.670627	-2.152017
C	3.377214	0.66841	-2.150252
C	3.100914	1.33825	-0.844779
H	2.319714	-2.127154	-0.89556
H	3.986197	-1.734625	-0.344448
H	3.550939	-1.261597	-3.053511
H	3.562064	1.260128	-3.050198
H	4.001505	1.722124	-0.339858
H	2.33858	2.130858	-0.889931
