17

C	0.983077	0.32948	0.415149
C	2.213118	-0.221258	-0.268152
O	1.83403	-1.329068	-1.066619
C	2.810997	-1.523332	-2.062006
C	3.321806	-0.138409	-2.401226
C	2.266887	0.914793	-2.559582
C	2.929274	0.713895	-1.228608
H	1.250642	1.162502	1.082044
H	0.496238	-0.454445	1.013785
H	0.261735	0.6927	-0.331785
H	2.948676	-0.544187	0.500194
H	3.649322	-2.150105	-1.693234
H	2.33402	-2.04944	-2.905058
H	4.290056	-0.031904	-2.897037
H	2.53069	1.813675	-3.122115
H	1.228265	0.587989	-2.677197
H	3.592707	1.482032	-0.823074
