16

C	0.963894	0.068881	0.178042
C	2.458572	-0.044026	-0.012891
N	3.28832	0.976984	0.650999
C	4.096705	-0.051022	1.323711
C	3.2078	-1.173869	0.75672
N	3.877374	-2.249463	0.084976
H	0.441073	-0.777177	-0.296293
H	0.569992	0.996289	-0.2682
H	0.705389	0.070405	1.250588
H	2.685293	-0.090226	-1.097888
H	2.758892	1.560533	1.292424
H	5.134955	-0.095274	0.946
H	4.151901	0.016119	2.423903
H	2.554263	-1.603086	1.536511
H	4.416618	-1.899015	-0.705452
H	3.21392	-2.927283	-0.283569
