13

C	1.052741	-0.067417	0.019678
C	2.524937	0.052205	-0.107586
C	3.208303	1.199675	-0.158708
O	4.576903	1.285429	-0.278549
C	5.179277	0.058154	-0.345401
C	4.512841	-1.09435	-0.29529
O	3.14806	-1.179875	-0.171032
H	0.573078	0.918299	0.065532
H	0.794551	-0.634289	0.929226
H	0.641853	-0.626236	-0.837088
H	2.722703	2.173065	-0.108653
H	6.262813	0.109562	-0.446658
H	5.004611	-2.064513	-0.35072
