11

C	1.020873	-0.011262	0.005158
C	2.498224	-0.063788	0.001869
N	3.212446	-1.123102	0.000472
C	4.572125	-0.650824	-0.002131
O	5.535242	-1.347043	-0.003888
N	4.625174	0.807461	-0.002257
C	3.403079	1.153549	0.00013
H	0.596174	-1.02197	0.001594
H	0.658383	0.54544	-0.875034
H	0.662714	0.536602	0.892719
H	3.069886	2.198207	0.000757
