12

N	1.286574	-0.205603	-0.840356
C	2.523141	-0.150243	-0.276844
O	3.044697	-1.108381	0.260533
C	3.189325	1.180769	-0.371435
C	4.417122	1.337149	0.152679
C	5.158646	2.544817	0.131877
C	5.813116	3.567998	0.126628
H	0.854162	0.591172	-1.282981
H	0.784423	-1.082607	-0.804526
H	2.679883	2.015612	-0.862622
H	4.867051	0.456316	0.629343
H	6.39164	4.473631	0.122603
