16

C	0.850815	0.000156	0.087273
C	2.340121	-0.176111	0.033392
C	2.805679	-1.595128	0.167926
C	3.144592	0.885792	-0.128254
C	4.647734	0.881329	-0.194349
C	5.149618	1.33807	-1.490164
N	5.530504	1.7074	-2.518716
H	0.551841	1.052436	-0.015054
H	0.444803	-0.383357	1.038977
H	0.361321	-0.5768	-0.715547
H	2.369535	-2.215391	-0.632858
H	2.454651	-2.026036	1.120698
H	3.896362	-1.713909	0.124651
H	2.683426	1.873976	-0.232866
H	5.068634	-0.115788	0.001275
H	5.066903	1.55197	0.576146
