18

C	2.512592	-0.896919	-0.435292
N	2.2597	0.338968	0.266554
C	3.364545	1.23489	0.287488
C	3.57158	2.130123	-0.911916
C	3.121174	2.707628	0.403022
C	1.723219	3.23953	0.55979
O	4.085811	3.364895	1.164608
H	1.614507	-1.534012	-0.414916
H	3.362758	-1.489298	-0.03325
H	2.739504	-0.680893	-1.49195
H	1.933061	0.158494	1.212488
H	4.295326	0.907994	0.781551
H	2.834958	2.053067	-1.716931
H	4.599962	2.330799	-1.221148
H	1.002282	2.590119	0.046383
H	1.643071	4.257438	0.143537
H	1.459111	3.287104	1.627871
H	4.195098	4.246782	0.791793
