17

C	1.46074	2.88398	-0.650129
O	2.734039	2.359089	-0.864455
C	2.990853	1.181398	-0.151446
C	4.441601	0.808935	-0.387136
N	5.365668	1.821295	0.057542
N	5.583624	1.872766	1.374287
C	6.013185	2.946322	1.911574
H	1.36822	3.803812	-1.244536
H	1.28877	3.135288	0.41553
H	0.662753	2.182162	-0.965666
H	2.320159	0.359618	-0.480306
H	2.82292	1.333804	0.935384
H	4.599986	0.64479	-1.465249
H	4.6806	-0.127063	0.13853
H	5.240485	2.719587	-0.416291
H	6.234039	2.937354	2.982273
H	6.188388	3.877903	1.343813
