12

O	1.116626	-0.138461	0.358243
C	2.287366	0.002837	0.099788
C	2.915971	1.320863	-0.024634
N	4.169204	1.419981	-0.291973
O	4.541869	2.700984	-0.353964
C	3.401491	3.575309	-0.154713
C	2.232394	2.642876	0.157687
H	2.979868	-0.857471	-0.064402
H	3.262803	4.154331	-1.080691
H	3.654756	4.267417	0.661081
H	1.377675	2.750989	-0.526318
H	1.840565	2.741416	1.181937
