16

C	0.928417	-0.034537	0.03093
C	2.380374	0.005437	0.013215
C	3.595776	0.044152	-0.002461
C	5.018018	0.057722	-0.013579
C	5.774886	1.13611	-0.281798
C	7.268991	1.139067	-0.273538
N	7.784232	1.727283	-1.495502
H	0.500685	0.980005	0.010897
H	0.55416	-0.538336	0.93672
H	0.532898	-0.581124	-0.840688
H	5.515681	-0.893263	0.220905
H	5.297071	2.08909	-0.535259
H	7.634138	0.113572	-0.048961
H	7.606829	1.772172	0.568446
H	7.575503	1.129352	-2.292673
H	8.795509	1.827546	-1.453584
