18

C	2.133717	-0.058845	-1.68185
C	2.289935	0.138714	-0.181976
N	2.860916	1.428747	0.166057
C	1.94536	2.532747	0.287767
C	4.227131	1.532974	0.175195
C	4.831605	2.886252	0.488683
O	4.936635	0.568792	-0.052443
H	1.674747	-1.035099	-1.901284
H	3.120155	-0.029247	-2.166766
H	1.497559	0.719564	-2.132236
H	2.952936	-0.637091	0.225528
H	1.317011	0.053451	0.329702
H	1.164649	2.308185	1.034295
H	1.438069	2.755485	-0.668937
H	2.459301	3.444085	0.610269
H	4.572393	3.635302	-0.275845
H	5.919891	2.756964	0.503965
H	4.501331	3.270571	1.465786
