18

C	1.014356	0.002491	-0.043572
C	2.520221	-0.022428	-0.019613
C	3.342225	-0.752805	-1.054689
C	2.723848	-1.516925	-2.196403
C	3.340759	0.751423	-1.015307
C	4.559129	1.529754	-0.597451
H	0.627134	0.860502	0.528964
H	0.587482	-0.912138	0.399518
H	0.619436	0.09022	-1.066373
H	2.941866	-0.054543	0.993071
H	4.25316	-1.218492	-0.658509
H	1.840573	-1.003641	-2.603874
H	2.405559	-2.524071	-1.882417
H	3.442429	-1.637416	-3.023009
H	2.753054	1.22327	-1.814288
H	5.103301	1.007813	0.205677
H	4.289607	2.529232	-0.219676
H	5.25834	1.666863	-1.438497
