20

C	0.536202	0.677095	-0.757024
C	2.026546	0.725587	-0.825612
C	2.830285	1.238879	0.111406
C	4.325524	1.288473	0.05008
C	4.897823	2.70496	0.116581
C	4.539511	3.570086	-1.081682
N	5.173273	4.871688	-0.985161
H	0.077894	1.20805	-1.60858
H	0.155428	1.130959	0.170373
H	0.165782	-0.360832	-0.804004
H	2.488158	0.29844	-1.726761
H	2.373025	1.672751	1.012973
H	4.677382	0.786506	-0.868178
H	4.738001	0.708007	0.895098
H	5.996011	2.666952	0.20085
H	4.537897	3.199066	1.039134
H	3.43359	3.601534	-1.183122
H	4.909565	3.071279	-1.995761
H	4.80147	5.381146	-0.184507
H	4.954284	5.437375	-1.802463
