16

C	-1.719166	0.644555	0.276266
N	-1.677374	-0.751916	-0.277729
C	-0.232456	-0.729038	0.096288
C	1.114781	-1.069347	-0.493905
O	1.920202	-0.028457	0.085801
C	1.136842	1.059533	0.625647
C	-0.204048	0.77012	0.002403
H	-2.397863	1.341973	-0.237201
H	-1.979323	0.608306	1.346373
H	-1.761818	-0.686699	-1.294659
H	-0.199843	-1.030535	1.160437
H	1.540174	-2.036731	-0.186506
H	1.124252	-1.009092	-1.599633
H	1.122641	1.009811	1.730263
H	1.61304	2.002917	0.318435
H	-0.121191	1.020221	-1.071698
