16

C	2.500839	-3.049386	0.314462
C	2.713485	-1.90484	-0.648664
C	2.905043	-2.360233	-2.089219
O	3.388309	-1.360288	-2.930701
O	1.549897	-1.079695	-0.504191
N	1.577191	-0.000224	-1.324223
C	0.578535	0.770058	-1.17749
H	2.279915	-2.666917	1.32064
H	3.401278	-3.677513	0.368969
H	1.65339	-3.675048	-0.006706
H	3.59944	-1.308951	-0.358912
H	1.937636	-2.786403	-2.435233
H	3.636296	-3.186608	-2.095232
H	2.858253	-0.572626	-2.730069
H	0.5364	1.656806	-1.813987
H	-0.213866	0.564608	-0.444705
