17

C	0.311777	1.240027	-0.307717
N	1.638969	1.774569	-0.214395
C	2.631575	0.973894	-0.212513
N	3.928533	1.356066	-0.136983
C	4.392691	2.700066	0.158024
C	3.917774	3.795707	-0.799901
O	2.651278	4.281437	-0.519549
H	-0.287451	1.540093	0.568986
H	0.28276	0.133439	-0.375041
H	-0.205543	1.646857	-1.193306
H	2.500359	-0.124029	-0.290744
H	4.604477	0.609794	-0.06826
H	5.492355	2.655823	0.138865
H	4.088433	3.001126	1.1788
H	4.023767	3.410016	-1.839127
H	4.626598	4.638005	-0.707126
H	2.078378	3.486169	-0.406491
