17

C	2.327174	-0.529037	-1.414849
C	2.494949	0.036251	-0.014562
O	3.083584	-0.897953	0.861046
C	3.272522	1.343549	-0.005887
C	2.522876	2.594879	-0.486332
O	2.486221	3.13768	0.828221
C	3.290489	2.075842	1.340635
H	1.799484	0.17554	-2.075952
H	1.758063	-1.469055	-1.381468
H	3.311775	-0.737724	-1.866792
H	1.496486	0.237983	0.413864
H	3.941263	-1.144034	0.495734
H	4.262952	1.189676	-0.467219
H	1.512436	2.418348	-0.901279
H	3.081188	3.235053	-1.193995
H	4.283649	2.426014	1.6749
H	2.809989	1.532608	2.172945
