18

C	2.474253	-0.431636	-1.645078
N	2.408498	0.076909	-0.297145
C	3.222378	1.25216	-0.054378
C	3.292387	1.599697	1.440678
C	3.396053	3.129441	1.507048
C	2.777865	3.552282	0.203276
C	2.670744	2.527938	-0.647092
H	1.892852	-1.36258	-1.723583
H	3.505201	-0.638696	-2.01004
H	2.022301	0.285117	-2.349757
H	2.682259	-0.652038	0.357496
H	4.257304	1.112588	-0.458616
H	4.104357	1.077485	1.969127
H	2.334435	1.28009	1.883186
H	4.447812	3.468142	1.56172
H	2.89084	3.557908	2.38795
H	2.493605	4.584472	-0.0179
H	2.289256	2.596053	-1.668372
