18

C	1.001001	0.001636	-0.139037
C	2.502685	-0.03209	0.077009
C	3.061181	1.122043	0.911508
C	4.478127	0.67349	1.29466
C	4.450178	-0.875381	1.250862
C	3.017769	-1.250053	0.846335
H	0.657098	-0.863839	-0.7275
H	0.689566	0.913001	-0.673933
H	0.467528	-0.017086	0.825967
H	3.005897	-0.014456	-0.909202
H	2.436012	1.234255	1.815344
H	3.038427	2.089307	0.385061
H	5.210561	1.063696	0.570602
H	4.780593	1.062975	2.278456
H	5.167921	-1.24999	0.504161
H	4.738825	-1.330391	2.210442
H	2.959449	-2.185542	0.267745
H	2.388991	-1.388655	1.74404
