15

C	2.503753	-0.500796	-0.188337
O	2.088138	0.840007	-0.095962
C	2.999206	1.815308	-0.01821
C	2.312112	3.137502	0.07247
C	4.340836	1.599033	-0.023787
C	5.357686	2.636286	0.063343
O	6.54805	2.413888	0.056362
H	1.590694	-1.106333	-0.239778
H	3.091115	-0.802261	0.695687
H	3.107041	-0.67365	-1.09569
H	1.66206	3.149489	0.961005
H	1.660719	3.268012	-0.805463
H	3.010132	3.978949	0.129026
H	4.744186	0.587373	-0.096637
H	4.986771	3.690484	0.14161
