22

C	1.084613	-0.233323	-0.186381
C	2.60176	-0.14369	-0.226201
C	3.090869	1.272506	-0.500182
N	4.52573	1.439205	-0.39821
C	5.242206	0.761987	-1.450565
C	4.903354	2.832802	-0.269382
C	6.343379	3.04416	0.167481
H	0.745512	-1.263146	0.00052
H	0.637393	0.093687	-1.139438
H	0.663756	0.403491	0.608538
H	2.983684	-0.836414	-0.994412
H	3.03666	-0.475927	0.731463
H	2.624928	1.942859	0.242194
H	2.705265	1.60821	-1.494436
H	4.982741	-0.305537	-1.472454
H	6.327535	0.820997	-1.284449
H	5.029144	1.183633	-2.461367
H	4.239504	3.283554	0.486759
H	4.716435	3.397118	-1.215214
H	6.555653	2.460595	1.076172
H	6.522116	4.107527	0.386614
H	7.067824	2.747135	-0.605501
