15

C	1.130675	-0.179643	0.59498
C	2.431774	-0.02391	-0.135695
C	2.975918	-1.040284	-0.824227
C	3.102392	1.297494	-0.069991
C	2.59154	2.348757	0.606746
C	4.350561	1.459977	-0.760198
C	5.402124	1.604434	-1.347911
H	0.373263	0.528912	0.222041
H	1.25244	0.014972	1.673175
H	0.732833	-1.196404	0.475555
H	2.480415	-2.013224	-0.87203
H	3.92489	-0.92714	-1.353036
H	1.644651	2.280341	1.14415
H	3.117283	3.304935	0.631496
H	6.33352	1.736813	-1.866636
