17

C	1.449693	0.666882	-1.527548
C	1.834392	1.134552	-0.125791
C	2.91799	2.179374	-0.130748
C	2.50276	3.533186	-0.551336
O	1.366343	3.818436	-0.85256
C	4.193418	1.898893	0.213371
C	5.387048	2.792627	0.243339
H	0.650856	-0.089623	-1.483042
H	2.311966	0.221128	-2.048095
H	1.082021	1.510056	-2.129982
H	2.159952	0.276178	0.48369
H	0.944182	1.562408	0.363457
H	3.300063	4.315485	-0.575868
H	4.396439	0.863743	0.520401
H	5.186867	3.826405	-0.062935
H	6.17526	2.389517	-0.414595
H	5.817999	2.814493	1.258272
