15

N	1.000586	-0.022801	0.0416
C	2.459556	-0.026115	-0.045842
C	3.038815	-1.286726	0.621557
C	3.286279	-0.893781	2.085313
C	3.45007	0.597444	1.99784
C	3.020609	1.072809	0.825907
H	0.61098	-0.659735	-0.651965
H	0.636293	0.900097	-0.189555
H	2.827976	0.06669	-1.089956
H	4.000338	-1.534769	0.144494
H	2.372317	-2.15506	0.506764
H	4.159595	-1.403931	2.524029
H	2.421714	-1.137048	2.729274
H	3.835253	1.208047	2.819263
H	2.994208	2.1287	0.541144
