12

C	0.978693	-0.045558	0.007656
C	2.315383	-0.047532	0.007694
N	3.107726	1.090403	0.00583
C	4.480294	1.040076	0.005939
O	5.120525	0.012468	0.007455
C	5.099638	2.362764	0.003541
C	5.636172	3.448761	0.001555
H	0.433319	-0.989648	0.009246
H	0.39576	0.880104	0.006086
H	2.905023	-0.967871	0.009252
H	2.664543	2.002008	0.004274
H	6.127175	4.405684	-0.000207
