15

C	-1.024942	0.028285	-1.021631
C	-0.616701	1.047575	0.070356
C	-0.9974	-0.048849	1.09094
C	-0.546224	-1.045953	-0.007917
N	0.905067	-1.150397	-0.030834
C	1.498006	-0.018523	-0.014935
N	0.829195	1.172744	0.08981
H	-2.114674	0.000563	-1.15897
H	-0.514005	0.076599	-1.995607
H	-1.089937	2.038544	0.11967
H	-0.4581	-0.065441	2.049874
H	-2.08293	-0.080949	1.25749
H	-1.00218	-2.04587	-0.039541
H	2.595009	0.039761	-0.058847
H	1.271066	2.030542	-0.210687
