18

C	1.090006	0.113276	-0.38849
C	2.475003	-0.026002	0.231923
C	3.163936	-1.332129	-0.199659
C	3.756593	-1.210943	-1.574612
C	3.959552	-0.027708	-2.164199
C	3.617967	1.268836	-1.485388
N	3.292542	1.144685	-0.07563
H	0.659561	1.093071	-0.133105
H	0.416798	-0.674056	-0.017611
H	1.127993	0.026099	-1.485984
H	2.348103	-0.040502	1.327651
H	2.451952	-2.175737	-0.167292
H	3.960355	-1.594372	0.522368
H	4.026832	-2.133297	-2.099813
H	4.365748	0.019605	-3.180438
H	4.453587	1.982528	-1.588291
H	2.774922	1.746476	-2.023648
H	4.157721	1.085847	0.456301
