16

C	1.21374	-0.907503	1.064305
C	1.980984	-1.150641	-0.226772
C	2.921582	-2.333002	-0.127526
O	1.111311	-1.430989	-1.313054
C	0.386159	-0.34437	-1.784939
C	-0.307098	-0.716153	-3.020735
N	-0.862087	-0.987882	-3.997864
H	0.56249	-0.022071	1.004633
H	1.911076	-0.742107	1.898671
H	0.587819	-1.782031	1.301118
H	2.569384	-0.240894	-0.473472
H	2.354805	-3.248355	0.101384
H	3.66606	-2.174052	0.665779
H	3.445672	-2.484881	-1.081479
H	1.038724	0.525395	-2.010652
H	-0.381751	0.011806	-1.069147
