13

C	0.962876	-0.205758	0.199447
C	2.4218	0.053698	-0.178733
C	2.826342	-0.677006	-1.375146
N	3.154768	-1.221128	-2.34356
C	2.694639	1.574538	-0.269236
N	3.478798	1.984593	-1.288153
O	2.236593	2.310759	0.575143
H	0.723066	0.402913	1.08097
H	0.799701	-1.267182	0.429331
H	0.289194	0.085203	-0.619265
H	3.072184	-0.29369	0.644322
H	3.802081	1.357566	-2.012691
H	3.684408	2.972574	-1.35906
