20

C	2.416647	-1.002578	1.580596
C	2.204496	-0.097919	0.374106
C	2.901573	1.267241	0.446841
C	2.303789	2.218578	1.484348
O	2.99662	3.427143	1.4824
N	4.336884	1.235692	0.69049
C	5.158085	0.705703	-0.372243
H	1.889017	-1.95925	1.454625
H	2.049289	-0.546532	2.512579
H	3.482654	-1.242134	1.725665
H	1.125573	0.076596	0.220959
H	2.549147	-0.621093	-0.533991
H	2.772534	1.764286	-0.53235
H	2.32482	1.734131	2.486613
H	1.241953	2.406435	1.249883
H	3.909029	3.158084	1.274633
H	4.533083	0.759086	1.569182
H	5.007853	1.301566	-1.286565
H	4.958252	-0.353854	-0.631881
H	6.221911	0.78827	-0.100479
