15

C	0.934304	-1.192514	0.829177
C	1.208338	-0.340738	-0.351673
C	1.049969	1.156118	-0.392047
C	-0.236909	1.617929	0.282163
C	-1.343437	0.612222	0.159748
N	-1.237076	-0.639957	-0.045407
N	0.02394	-1.203002	-0.308594
H	1.505841	-2.110239	1.003753
H	0.566075	-0.705723	1.74055
H	1.947196	-0.725193	-1.065848
H	1.930023	1.655631	0.043326
H	1.021795	1.450843	-1.453722
H	-0.076269	1.789073	1.362305
H	-0.56877	2.58867	-0.117296
H	-2.370378	0.96609	0.329055
