17

C	1.037239	-0.038494	-0.051775
C	2.542836	-0.035746	0.057641
O	3.150702	-0.155943	-1.215645
C	3.257478	1.032078	0.916191
C	4.281198	-0.0393	1.341454
C	3.249947	-1.111047	0.922621
O	3.651591	-2.267937	0.28165
H	0.565306	0.01156	0.940464
H	0.703504	-0.959724	-0.553167
H	0.67895	0.823952	-0.639525
H	2.919915	0.615868	-1.742863
H	2.626698	1.370011	1.752427
H	3.631758	1.916021	0.376689
H	5.145109	-0.063962	0.661541
H	4.639005	-0.042052	2.381143
H	2.612746	-1.39322	1.777373
H	3.919827	-1.990426	-0.605979
