18

C	1.560279	-0.375606	1.138144
C	2.112798	0.254426	-0.132151
C	3.291117	1.157466	0.13063
N	3.712429	2.151903	-0.832389
C	3.074123	2.605434	0.405934
C	3.912979	3.364516	1.352457
C	3.454626	4.285541	2.202635
H	0.710358	-1.040631	0.92305
H	1.219196	0.396216	1.845591
H	2.330316	-0.974199	1.650627
H	1.324102	0.836057	-0.642514
H	2.418685	-0.534965	-0.841518
H	4.127614	0.668117	0.649317
H	3.055491	2.204536	-1.610757
H	2.028452	2.938565	0.349253
H	4.981086	3.118074	1.325489
H	2.393326	4.55307	2.23614
H	4.120403	4.807928	2.893744
