13

C	1.136957	-0.338453	0.71064
C	2.537601	-0.77364	0.409809
O	2.939521	-1.906673	0.520042
C	3.49378	0.339389	-0.069427
O	3.077235	1.471023	-0.189709
C	4.884433	-0.076358	-0.355546
C	5.780653	0.816714	-0.789021
H	1.148003	0.413544	1.515309
H	0.532973	-1.205487	1.002445
H	0.703036	0.165688	-0.166025
H	5.129383	-1.129034	-0.197855
H	5.482901	1.860778	-0.932771
H	6.813495	0.536378	-1.01017
