19

C	-0.819179	0.812287	-1.367257
C	0.003511	0.355364	-0.174505
C	1.482029	0.637805	-0.336661
O	2.160489	0.189027	0.800404
C	3.546074	0.372446	0.744094
C	4.171485	-0.221688	1.963304
C	5.093172	0.378181	2.715039
H	-1.887852	0.59298	-1.22407
H	-0.500611	0.308708	-2.294129
H	-0.723691	1.897898	-1.53229
H	-0.12179	-0.727046	-0.006786
H	-0.341026	0.850481	0.748179
H	1.647969	1.726532	-0.489063
H	1.870313	0.132625	-1.248083
H	3.809714	1.447479	0.656846
H	3.960642	-0.12756	-0.160135
H	3.828632	-1.233569	2.208642
H	5.43914	1.393314	2.49399
H	5.540339	-0.120635	3.578731
