17

C	4.608068	-1.272057	-0.649313
C	3.396409	-0.502324	-0.144513
O	2.998097	-0.94566	1.12714
C	3.606832	1.026609	-0.158123
C	4.645218	1.440012	0.860003
N	5.911686	1.62052	0.373621
N	4.433625	1.506774	2.122978
H	4.848983	-1.009829	-1.691288
H	4.40625	-2.35197	-0.599843
H	5.496143	-1.052965	-0.034774
H	2.540896	-0.714699	-0.807827
H	3.724101	-0.758211	1.738684
H	2.652289	1.507127	0.102205
H	3.877864	1.355663	-1.174183
H	6.042953	1.850553	-0.599736
H	6.591886	1.987952	1.02737
H	3.448361	1.321047	2.312729
