11

O	2.715058	-1.037189	0.071023
C	2.149877	0.031853	0.010751
C	2.870091	1.30051	-0.007321
N	2.352459	2.51381	-0.071583
C	3.410614	3.357873	-0.061969
C	4.598502	2.645683	0.009834
N	4.230621	1.340862	0.043317
H	1.040384	0.135483	-0.035637
H	3.289937	4.440143	-0.106974
H	5.637556	2.965387	0.038267
H	4.816631	0.515235	0.096522
