16

C	1.438477	0.205664	-0.328983
C	2.839996	-0.10043	0.10517
C	3.192549	-1.501368	0.575665
O	4.600388	-1.552493	0.60418
C	5.084574	-0.727602	-0.43419
C	4.080864	0.398244	-0.539106
N	3.621126	0.961574	0.717342
H	1.371533	1.242786	-0.684171
H	0.735109	0.092427	0.511938
H	1.116015	-0.469162	-1.137339
H	2.765214	-2.243911	-0.129631
H	2.820845	-1.735466	1.58704
H	6.101702	-0.402916	-0.160052
H	5.144282	-1.269528	-1.400388
H	4.085429	1.0549	-1.415807
H	4.180158	0.602862	1.494191
