22

C	0.998237	0.053166	0.021121
C	2.522706	-0.092442	-0.00528
C	2.97021	-0.838317	1.255769
C	2.91893	-0.900528	-1.245515
C	3.132732	1.320664	-0.05
C	4.651236	1.426665	-0.027487
N	5.051345	2.821399	-0.03416
H	0.635213	0.59273	-0.868577
H	0.667941	0.614422	0.909949
H	0.505087	-0.931803	0.04115
H	2.72302	-0.265603	2.164372
H	4.05489	-1.026535	1.259521
H	2.468584	-1.815922	1.32857
H	2.609857	-0.386127	-2.170257
H	2.434005	-1.88925	-1.237369
H	4.005625	-1.067303	-1.299121
H	2.748605	1.912057	0.799197
H	2.759687	1.827622	-0.960437
H	5.078639	0.830113	-0.861698
H	5.036365	0.967224	0.898454
H	4.76934	3.261901	-0.908773
H	6.064508	2.904976	0.009472
