13

N	1.795839	-0.373888	-1.110584
C	2.699283	-0.158253	-0.001931
C	3.081605	1.287563	0.097248
C	2.391605	2.379535	-0.371139
C	3.085369	3.578452	-0.049375
N	4.214468	3.456703	0.608301
S	4.509602	1.846838	0.875302
H	1.446485	-1.328586	-1.108624
H	2.28025	-0.233092	-1.995185
H	3.624585	-0.772885	-0.020032
H	2.175274	-0.439489	0.929314
H	1.447261	2.303594	-0.90874
H	2.742973	4.58445	-0.312254
