18

C	0.875029	-0.093634	0.667898
C	2.347616	-0.094593	0.309103
C	3.018468	1.246183	0.495634
O	2.475707	2.171149	1.054424
C	4.420655	1.407465	-0.084733
N	5.128526	2.577931	0.346457
C	5.617839	2.497886	1.706037
H	0.438722	-1.097863	0.566413
H	0.312283	0.594308	0.020101
H	0.72978	0.248891	1.702076
H	2.521239	-0.428724	-0.729382
H	2.910997	-0.813737	0.932454
H	4.293661	1.416639	-1.185669
H	5.014073	0.499555	0.125563
H	4.499094	3.374841	0.266168
H	6.385117	1.70881	1.779855
H	4.839243	2.288155	2.467733
H	6.105222	3.445737	1.979806
