15

C	1.287975	0.298615	0.122443
C	2.760501	0.014134	-0.1527
C	2.928822	-0.745463	-1.401515
N	3.058313	-1.368905	-2.367145
N	3.504402	1.255131	-0.24476
C	3.975015	1.81608	0.999799
C	4.920357	1.207417	0.030359
H	1.195321	0.83868	1.075946
H	0.710831	-0.633892	0.18781
H	0.870823	0.926594	-0.676887
H	3.155497	-0.643674	0.65614
H	3.78298	1.255607	1.924876
H	3.891344	2.90314	1.1006
H	5.553226	1.832149	-0.607704
H	5.360572	0.239826	0.304798
