17

C	1.74834	0.344322	-2.632272
C	2.944152	0.40287	-1.741978
C	3.269488	1.427843	-0.950376
C	4.468313	1.452018	-0.040931
O	5.286332	0.309304	-0.159053
C	5.315104	2.695311	-0.177115
C	5.228314	3.607012	-1.146598
H	1.097427	-0.505429	-2.36454
H	2.041576	0.18947	-3.684505
H	1.14822	1.265169	-2.576811
H	3.597645	-0.478518	-1.726346
H	2.625482	2.315449	-0.913651
H	4.09534	1.424486	1.001096
H	5.712604	0.36266	-1.023284
H	6.099489	2.783283	0.584682
H	4.469584	3.539286	-1.932342
H	5.91455	4.457153	-1.190258
