19

C	1.03204	-0.016866	-0.189139
C	2.534306	0.012664	-0.031244
N	3.034511	-0.119954	1.310794
C	3.409148	-0.63149	-1.082789
C	3.4297	0.861801	-0.939228
C	2.833744	1.717117	-2.027445
N	4.622572	1.447143	-0.390196
H	0.713294	0.055818	-1.238025
H	0.558962	0.813587	0.362785
H	0.622032	-0.95942	0.213422
H	2.816033	-1.042347	1.684573
H	2.588511	0.559674	1.925482
H	2.921102	-1.060804	-1.963035
H	4.288724	-1.178624	-0.731033
H	1.989662	1.229774	-2.532296
H	3.605698	1.935339	-2.781121
H	2.474435	2.679159	-1.623865
H	4.856772	0.932849	0.460341
H	4.408284	2.396468	-0.0819
