11

O	2.613732	-1.144198	0.067138
C	2.131531	-0.039593	0.007851
C	2.911683	1.197985	0.002306
C	2.423131	2.478116	-0.064026
O	3.425566	3.361195	-0.048324
C	4.587174	2.66266	0.028975
C	4.33989	1.328421	0.063417
H	1.02172	0.106502	-0.048636
H	1.414418	2.88165	-0.124695
H	5.497041	3.257052	0.050733
H	5.058672	0.514989	0.12472
