17

C	2.389251	0.115049	-0.820779
O	3.665488	0.663705	-0.715345
C	3.664482	1.988322	-0.268898
C	5.096534	2.46393	-0.193731
C	5.229262	3.894483	0.274319
C	6.624869	4.467931	0.298809
O	4.265275	4.545385	0.603908
H	2.492913	-0.919591	-1.177416
H	1.753509	0.671855	-1.538878
H	1.86023	0.099596	0.153558
H	3.183698	2.079753	0.725996
H	3.084304	2.644166	-0.949588
H	5.584529	2.356385	-1.178239
H	5.674585	1.81227	0.485102
H	7.315251	3.804734	0.842566
H	6.60889	5.461381	0.763486
H	7.00706	4.553186	-0.73134
