13

C	0.925552	0.001303	0.10274
C	2.132223	-0.001362	0.006323
C	3.587606	-0.000966	-0.106053
C	4.172976	1.180367	-0.839092
C	5.006796	0.731278	-1.796941
C	5.007492	-0.733277	-1.796312
C	4.174175	-1.182376	-0.838054
H	-0.145665	0.003543	0.184207
H	4.011386	-0.000324	0.921559
H	3.939839	2.214616	-0.586122
H	5.597422	1.351646	-2.473769
H	5.598698	-1.353652	-2.472633
H	3.94213	-2.216656	-0.584203
