17

N	1.941358	-0.348399	-1.514211
C	2.505952	-0.075599	-0.204637
C	2.971101	1.343549	-0.117608
C	4.188206	1.725514	0.28092
C	4.635927	3.127196	0.385982
C	5.484163	3.600797	1.513748
N	6.065052	3.375276	0.20727
H	1.570753	-1.295093	-1.554631
H	2.667351	-0.288217	-2.226006
H	3.338966	-0.745627	0.100126
H	1.704031	-0.228848	0.541772
H	2.234776	2.096676	-0.426677
H	4.935835	0.97442	0.566102
H	3.931401	3.864298	-0.020813
H	5.789457	2.895661	2.295153
H	5.322921	4.625849	1.868805
H	6.221838	4.25269	-0.285335
