14

C	0.904364	0.276385	-0.26397
C	2.336689	0.187524	0.169437
O	3.080957	-0.920784	-0.285503
C	3.449929	0.358523	-0.777427
C	4.760774	0.86656	-0.33873
N	5.458192	1.566828	-1.14029
O	6.631191	1.98585	-0.587818
H	0.515181	1.295096	-0.11289
H	0.281405	-0.416494	0.321896
H	0.803741	0.012353	-1.326569
H	2.530438	0.453906	1.220154
H	3.214569	0.552768	-1.832403
H	5.110104	0.627997	0.677722
H	7.051596	2.480286	-1.299259
