11

O	1.12584	-0.304786	-0.876526
C	2.16046	-0.074238	-0.362661
C	3.271469	-0.763474	0.535376
O	3.272776	0.48514	1.24587
C	3.12724	1.136896	-0.025934
C	4.331281	0.666852	-0.799521
C	4.42897	-0.624591	-0.418095
H	3.124593	-1.659757	1.148516
H	2.832607	2.191783	0.010647
H	4.900643	1.224594	-1.542034
H	5.099571	-1.410019	-0.764348
