19

C	1.232511	1.146255	1.457198
C	2.719489	0.887223	1.421812
O	3.286299	1.648239	0.390076
C	4.66148	1.496708	0.262109
C	5.305303	2.354643	-0.828225
C	6.502065	2.573857	0.117958
C	5.595033	2.166518	1.296289
H	0.750748	0.557433	2.25141
H	0.773672	0.877265	0.493981
H	1.033547	2.212234	1.642076
H	2.922388	-0.192768	1.259388
H	3.17972	1.149892	2.397253
H	4.925988	0.424716	0.139423
H	4.713695	3.274538	-0.95121
H	5.477723	1.903598	-1.81671
H	7.303332	1.839081	-0.054895
H	6.954997	3.575628	0.145473
H	6.022408	1.555426	2.10609
H	5.085871	3.040244	1.732486
