17

O	2.214927	-0.373571	-1.400108
C	2.357212	0.020498	-0.060319
C	3.084013	1.338176	-0.018836
C	2.402705	2.629765	-0.509864
C	3.129744	3.392182	0.615139
C	3.296968	2.040612	1.335297
O	4.420617	1.765868	2.105568
H	1.748439	-1.21393	-1.424429
H	2.932676	-0.718946	0.534938
H	1.372885	0.139517	0.441274
H	4.060696	1.222517	-0.523084
H	1.313688	2.592066	-0.343017
H	2.583403	2.938406	-1.548389
H	4.110493	3.762893	0.272634
H	2.610003	4.208174	1.138813
H	2.426085	1.854418	1.987897
H	5.199313	1.937415	1.564816
