20

C	1.03906	-0.071841	0.027693
C	2.543841	-0.031211	-0.026073
C	3.341505	-0.685341	-1.127977
C	2.697956	-1.431748	-2.267604
C	3.271481	0.816385	-1.02909
C	4.484889	1.62028	-0.649612
N	5.307912	1.880044	-1.815376
H	0.646182	0.757345	0.637521
H	0.676904	-1.012655	0.473352
H	0.587523	0.016672	-0.971049
H	3.01856	-0.082348	0.96176
H	4.290009	-1.124124	-0.792221
H	1.778295	-0.936684	-2.611295
H	2.433033	-2.46165	-1.978803
H	3.37751	-1.491114	-3.132852
H	2.645004	1.301899	-1.788241
H	5.007722	1.088429	0.177112
H	4.1622	2.58954	-0.229803
H	5.635596	0.998084	-2.206453
H	6.138837	2.409368	-1.560578
