12

C	1.01359	-0.241802	0.151971
C	2.315276	0.160884	-0.485159
O	2.712584	-0.284066	-1.534863
C	3.158986	1.158407	0.259717
C	2.608507	2.470417	0.637195
O	2.803644	1.461611	1.591325
H	0.400542	0.634258	0.413412
H	1.22119	-0.76464	1.098886
H	0.462711	-0.90017	-0.530843
H	4.232498	1.083362	0.039733
H	1.565414	2.714675	0.395228
H	3.288977	3.330062	0.6915
