15

C	1.017851	0.006528	-0.06285
C	2.522429	-0.006184	-0.02629
C	3.310255	-0.703749	-1.100319
C	3.327803	0.797173	-1.007352
C	4.572117	1.52834	-0.580148
H	0.607962	0.862607	0.49712
H	0.595647	-0.912925	0.374057
H	0.648521	0.079712	-1.098161
H	2.95197	-0.069476	0.981454
H	2.755439	-1.165674	-1.923071
H	4.216424	-1.245721	-0.812835
H	2.736231	1.316776	-1.771506
H	5.117825	0.961514	0.190973
H	4.33288	2.517834	-0.158457
H	5.259403	1.682316	-1.427835
