17

C	0.903977	-0.023507	0.148607
C	2.413301	-0.005539	-0.01319
C	2.819551	0.023707	-1.480728
C	3.169712	1.083212	0.807683
C	4.11789	-0.010793	1.279107
O	5.20664	-0.008495	1.77399
C	3.191278	-1.106531	0.770426
H	0.61608	-0.04564	1.211761
H	0.463995	-0.908701	-0.338386
H	0.446	0.869625	-0.306316
H	3.915575	0.036539	-1.595662
H	2.418815	0.919712	-1.981263
H	2.436266	-0.862137	-2.012087
H	2.576325	1.472162	1.652524
H	3.616527	1.934555	0.270517
H	3.654681	-1.930086	0.204781
H	2.605496	-1.535064	1.601288
