13

O	1.021888	-0.087598	0.623126
C	2.151895	-0.03894	0.242511
C	2.855476	1.200443	-0.254466
C	4.322278	1.266226	0.160259
C	4.963133	-0.059306	-0.10738
C	4.219838	-1.166714	-0.100804
O	2.881946	-1.191533	0.186405
H	2.268598	2.065934	0.07813
H	2.79205	1.160819	-1.357087
H	4.41004	1.52487	1.231883
H	4.831466	2.072629	-0.388748
H	6.032926	-0.143681	-0.30652
H	4.600377	-2.171949	-0.290378
