16

O	2.269642	-0.932017	1.022815
C	2.142899	-0.058949	-0.086321
C	2.940418	1.208017	0.157456
C	4.461398	1.110411	0.040881
C	5.179615	0.272016	1.093592
O	4.980551	-1.102649	0.960776
H	1.740671	-1.720528	0.862926
H	1.079631	0.209555	-0.228811
H	2.490699	-0.547548	-1.01772
H	2.660623	1.594492	1.153791
H	2.582656	1.954143	-0.571627
H	4.870016	2.13498	0.08374
H	4.730404	0.709954	-0.953034
H	4.893978	0.639727	2.103711
H	6.263908	0.450136	0.996951
H	4.035132	-1.260872	1.121514
