14

O	0.916868	0.240157	0.634536
N	2.277726	0.28224	0.646017
C	2.751029	1.1396	-0.163751
C	4.227913	1.270291	-0.297992
O	4.572006	2.624163	-0.120288
C	5.869081	2.954693	-0.235578
C	6.907765	2.151793	-0.492702
H	0.705152	-0.428095	1.295074
H	2.095908	1.777327	-0.776691
H	4.550093	0.933552	-1.304122
H	4.72399	0.625236	0.449177
H	5.997893	4.030885	-0.083894
H	6.816663	1.075386	-0.645444
H	7.904664	2.588941	-0.555443
