15

O	0.87873	2.028648	-0.370927
N	2.206042	1.930479	-0.686041
C	2.856229	1.225622	0.147081
C	4.318615	0.984484	-0.008703
C	5.070122	1.930959	-0.965082
N	5.526243	2.698533	0.194848
C	5.199555	1.60613	1.105741
H	0.526523	2.592969	-1.066768
H	2.337808	0.770524	1.007821
H	4.488515	-0.093174	-0.168981
H	4.447913	2.488982	-1.681743
H	5.868183	1.398171	-1.518014
H	6.490781	3.017813	0.187666
H	6.045258	0.942003	1.373128
H	4.689553	1.906998	2.038565
