12

O	1.8471	-1.105017	-0.643112
C	1.717491	0.016022	-0.23742
C	2.862912	0.922398	0.151649
C	4.195062	0.259848	0.107396
C	5.135253	0.402819	1.053103
C	6.414112	-0.226202	0.978353
N	7.463905	-0.717795	0.93468
H	0.703693	0.483901	-0.136218
H	2.647859	1.374362	1.134858
H	2.832048	1.767098	-0.566807
H	4.391491	-0.382267	-0.757373
H	4.957904	1.022864	1.939161
