18

C	1.075009	-0.252228	0.027883
N	2.508099	-0.104985	0.019037
C	2.965837	1.242066	-0.231534
C	4.455316	1.331274	-0.138444
C	5.25686	1.84846	-1.074484
C	6.74601	1.941274	-0.963634
O	7.403367	1.353665	-2.059305
H	0.804119	-1.307382	0.183404
H	0.566074	0.096822	-0.898849
H	0.643392	0.320351	0.865954
H	2.927651	-0.738164	-0.657545
H	2.52274	1.894635	0.545693
H	2.62362	1.661334	-1.205973
H	4.890406	0.926664	0.785427
H	4.828172	2.230535	-2.010823
H	7.076219	1.513365	0.004963
H	7.05484	3.000649	-0.960933
H	7.097747	0.442295	-2.121127
