16

C	1.855932	-0.924897	1.003499
C	2.834264	-0.37406	-0.02987
C	2.857075	1.119046	-0.076697
N	3.907835	1.780135	0.217485
N	3.878976	3.118524	0.241098
C	5.146484	3.778329	0.082245
H	1.839711	-2.025746	0.992295
H	0.828066	-0.576203	0.810782
H	2.130956	-0.598444	2.018515
H	2.564972	-0.765721	-1.028351
H	3.858545	-0.717492	0.182784
H	1.914094	1.638306	-0.348111
H	3.097006	3.557827	-0.249527
H	5.865223	3.347256	0.793799
H	5.030564	4.847242	0.315654
H	5.578016	3.686019	-0.93493
