16

C	1.277188	-0.372004	0.160346
C	2.791254	-0.372141	0.030697
C	3.387932	1.023537	0.033707
C	4.898044	1.048929	-0.089458
C	5.548773	2.41216	-0.101352
O	5.547259	0.033847	-0.172938
H	0.872671	-1.395097	0.156377
H	0.800443	0.175828	-0.668953
H	0.952569	0.10813	1.098213
H	3.098879	-0.887227	-0.894152
H	3.248407	-0.954231	0.847387
H	3.116439	1.57153	0.956135
H	2.969508	1.638959	-0.784958
H	5.162394	3.014616	-0.939122
H	6.636599	2.302383	-0.194123
H	5.307492	2.96156	0.823055
