16

C	1.182316	0.116176	-0.776174
O	2.307746	0.238922	0.047998
C	3.007134	1.415227	0.008219
C	2.194113	2.671862	0.036698
C	4.346424	1.330037	0.018076
C	5.33645	2.442847	0.095796
H	0.829779	-0.920252	-0.681711
H	1.423594	0.306659	-1.839241
H	0.355309	0.786209	-0.478846
H	1.461952	2.633056	0.860306
H	1.627202	2.81828	-0.897454
H	2.825609	3.556199	0.180501
H	4.744736	0.309712	-0.00748
H	4.869512	3.437257	0.12004
H	6.02367	2.423479	-0.767605
H	5.968574	2.352481	0.996278
