17

N	0.782651	0.361123	0.413312
C	2.137119	0.020591	0.059197
C	3.226169	0.884538	0.761998
N	3.969699	-0.31314	1.176018
C	2.861173	-1.1766	0.74139
C	2.271877	0.098307	-1.435199
C	2.878684	-0.766036	-2.249324
H	0.65629	0.325809	1.423234
H	0.124484	-0.298731	0.002922
H	2.816605	1.441992	1.624089
H	3.767727	1.599466	0.120843
H	4.798952	-0.452752	0.606605
H	3.135037	-2.038242	0.110733
H	2.280194	-1.564441	1.597759
H	1.820102	1.007295	-1.852222
H	3.340448	-1.689688	-1.88875
H	2.936369	-0.577423	-3.324745
