14

O	0.985182	1.42506	0.78927
N	2.298102	1.692714	0.550161
C	2.967787	0.641691	0.269421
C	4.402786	0.714172	-0.011413
C	5.072319	-0.422486	-0.289072
C	5.047397	2.03963	0.047343
C	6.110516	2.411267	-0.672249
H	0.609699	2.290331	0.983988
H	2.47008	-0.339971	0.240328
H	4.555284	-1.38391	-0.346307
H	6.151649	-0.421538	-0.455232
H	4.573763	2.760904	0.720756
H	6.576373	1.743884	-1.404046
H	6.544084	3.408263	-0.562106
