15

C	0.257345	1.361544	0.759825
O	1.167906	0.479133	0.129032
C	0.385618	-0.319033	-0.782948
C	-0.626795	0.699853	-1.301058
C	-1.114661	0.999247	0.130091
C	-1.410298	-0.402282	0.619438
C	-0.499729	-1.215097	0.061914
H	0.534747	2.408439	0.540763
H	0.267756	1.217152	1.854396
H	1.068945	-0.795563	-1.496354
H	-0.148117	1.555484	-1.802093
H	-1.411133	0.268349	-1.937598
H	-1.897931	1.756668	0.263843
H	-2.145738	-0.655036	1.386415
H	-0.325276	-2.270599	0.276735
