15

C	2.106842	-0.48658	1.430149
C	2.317878	0.07058	0.023961
C	2.914069	1.45797	0.013426
C	2.168456	2.596328	0.031175
N	0.813913	2.664594	0.068253
C	4.330844	1.580145	0.063568
N	5.49168	1.645097	0.097408
H	1.673022	-1.498157	1.399783
H	1.433644	0.158916	2.015461
H	3.062944	-0.543501	1.972078
H	1.359387	0.082323	-0.526068
H	2.971861	-0.604554	-0.550657
H	2.676975	3.56484	0.043682
H	0.263808	1.826577	-0.061873
H	0.357368	3.535871	-0.156208
