15

C	1.164818	0.030266	0.259248
N	2.578642	0.023656	0.057159
C	3.324433	-1.187163	-0.159339
C	4.704182	-0.683815	-0.449935
C	4.708514	0.653632	-0.443699
C	3.348335	1.15558	-0.161103
N	3.027731	2.392502	-0.142606
H	0.866674	0.939062	0.805341
H	0.864962	-0.832164	0.874847
H	0.587539	-0.003686	-0.685104
H	2.92375	-1.782186	-1.00697
H	3.302773	-1.852127	0.727938
H	5.551213	-1.345278	-0.635924
H	5.543825	1.328558	-0.623726
H	2.031508	2.521952	0.047383
