14

C	7.976624	1.130344	-2.644784
O	7.693154	0.436042	-1.448148
N	6.489005	0.828599	-0.928161
C	5.431215	-0.046745	-0.844498
O	4.485096	0.218748	-0.130172
C	5.515305	-1.261259	-1.701387
C	4.48385	-2.106974	-1.741989
H	7.215969	0.927845	-3.418589
H	8.95448	0.762026	-2.983378
H	8.036825	2.219817	-2.475728
H	6.557094	1.520942	-0.18393
H	6.433224	-1.437289	-2.266107
H	3.589053	-1.894624	-1.148996
H	4.507254	-3.013624	-2.351063
