13

C	1.026513	0.060429	0.141502
C	2.328587	0.018008	-0.153494
O	3.050575	1.11592	-0.504667
C	4.353129	0.72222	-0.838826
O	4.47604	-0.638977	-0.529876
C	3.258765	-1.12641	-0.168362
C	3.038332	-2.413584	0.112191
H	0.50532	-0.850963	0.43071
H	0.478547	1.001932	0.101702
H	4.529838	0.881368	-1.919405
H	5.081834	1.305933	-0.250503
H	2.044182	-2.741555	0.411851
H	3.847248	-3.141629	0.050787
