18

C	0.96741	0.040035	-0.170706
C	2.476227	-0.030768	0.057533
N	2.86496	-1.233538	0.80609
C	3.493217	-0.849667	2.063367
C	3.546946	0.655382	2.037151
C	4.117158	1.443245	3.163922
C	2.988089	1.100397	0.907403
H	0.626756	-0.823497	-0.762101
H	0.684242	0.960869	-0.706725
H	0.440218	0.02097	0.795021
H	2.968285	-0.018605	-0.936145
H	3.473781	-1.825686	0.255211
H	4.503272	-1.28808	2.182597
H	2.915408	-1.19399	2.946924
H	4.04599	2.525261	2.983185
H	5.178084	1.189646	3.329557
H	3.591416	1.216152	4.106997
H	2.864001	2.152175	0.63617
