17

C	1.005043	-0.085165	0.442303
C	2.396662	0.000613	-0.138968
C	2.654652	1.270505	-0.940402
C	4.082599	1.280869	-1.47871
C	4.42932	-0.078183	-2.008264
C	3.664943	-1.147683	-1.749316
O	2.576394	-1.154807	-0.952813
H	0.832082	0.731321	1.158741
H	0.867116	-1.044228	0.962253
H	0.25212	-0.017582	-0.35793
H	3.145682	-0.053858	0.677283
H	2.454135	2.150999	-0.310033
H	1.935684	1.297122	-1.777298
H	4.791798	1.586075	-0.687133
H	4.183357	2.037607	-2.275435
H	5.302757	-0.209394	-2.650898
H	3.858007	-2.136021	-2.17561
