15

C	1.136218	-0.335367	0.282292
N	2.278458	-0.256729	-0.592763
C	2.299472	-1.311753	-1.575955
C	2.468768	1.042015	-1.179439
C	3.887313	1.242301	-1.66383
O	4.203621	1.981522	-2.554618
H	1.208555	0.427224	1.073295
H	1.106756	-1.320836	0.772342
H	0.164227	-0.192939	-0.242285
H	2.284253	-2.294081	-1.079607
H	3.221481	-1.261391	-2.177136
H	1.437895	-1.270339	-2.281292
H	2.316271	1.814706	-0.40289
H	1.770215	1.288709	-2.010573
H	4.642947	0.648779	-1.081841
