17

C	3.427486	-0.082605	1.565408
O	4.511472	0.224108	0.74401
C	4.567371	1.56984	0.350733
C	5.883427	1.776435	-0.341224
O	6.967143	1.464259	0.466474
C	5.997172	1.518176	-1.817555
C	6.068711	2.922681	-1.271899
H	3.488496	-1.148947	1.82471
H	2.45867	0.09796	1.05761
H	3.434587	0.509037	2.502282
H	4.513368	2.234135	1.238201
H	3.722996	1.829426	-0.31979
H	6.799728	0.566378	0.782306
H	5.105666	1.212504	-2.372209
H	6.933378	1.065024	-2.152227
H	7.050119	3.402275	-1.239068
H	5.228809	3.601584	-1.44675
