19

C	1.246045	-0.526823	1.727826
C	1.77575	-0.886055	0.354495
C	2.416721	-2.265936	0.325442
O	0.680846	-0.799988	-0.535114
C	0.985366	-0.790521	-1.905222
C	-0.256802	-0.300858	-2.618381
O	-0.632313	0.964462	-2.160172
H	0.796507	0.476649	1.715876
H	2.051627	-0.540917	2.476508
H	0.470764	-1.246775	2.032494
H	2.536104	-0.134169	0.052289
H	1.670698	-3.032288	0.588616
H	3.247517	-2.324456	1.044775
H	2.821667	-2.508093	-0.668262
H	1.27532	-1.793364	-2.276036
H	1.82596	-0.095151	-2.106103
H	-1.063368	-1.050704	-2.477211
H	-0.058674	-0.231146	-3.700244
H	-0.617924	0.897832	-1.196196
