12

O	0.980731	0.013123	-0.144245
C	2.367171	-0.025087	0.001086
C	2.88354	1.411438	0.042974
O	2.377517	2.140661	1.127205
C	4.353725	1.417643	0.000566
C	5.56473	1.403573	0.007393
H	0.645528	-0.887463	-0.128108
H	2.873122	-0.550039	-0.834612
H	2.686216	-0.531075	0.937908
H	2.498588	1.916011	-0.860181
H	2.739944	1.759231	1.935198
H	6.639549	1.404833	0.006167
