17

C	0.986214	0.017005	0.117893
C	2.467747	-0.022494	-0.025807
C	3.25526	-1.105895	-0.066737
C	4.709126	-0.763443	-0.203086
C	4.699796	0.748157	-0.341711
C	5.754946	1.509814	-0.632777
C	3.282974	1.241081	-0.127715
H	0.553052	-0.991163	0.178917
H	0.520009	0.541975	-0.733458
H	0.691377	0.573548	1.024364
H	2.890713	-2.133996	0.005054
H	5.291376	-1.085045	0.681706
H	5.188006	-1.252685	-1.070199
H	6.746295	1.074875	-0.788076
H	5.665773	2.595657	-0.730768
H	2.940263	1.896791	-0.949019
H	3.193232	1.845057	0.795859
