19

C	1.031908	0.085807	-0.069293
C	2.535708	0.014299	-0.029002
C	3.367585	-0.725083	-1.069254
C	2.764524	-1.455375	-2.240639
C	3.447419	0.775437	-0.955452
C	2.911882	1.680243	-2.027978
O	4.609117	1.350365	-0.434585
H	0.664597	0.960061	0.49141
H	0.58044	-0.812105	0.38278
H	0.638371	0.166513	-1.09218
H	2.929624	-0.069367	0.992899
H	4.246357	-1.235411	-0.653128
H	1.879379	-0.944251	-2.644083
H	2.450252	-2.471634	-1.954082
H	3.491653	-1.550645	-3.062783
H	1.999994	1.287546	-2.492747
H	3.671992	1.81529	-2.812566
H	2.686476	2.669217	-1.601042
H	4.930091	0.799004	0.285593
