14

N	1.217685	-0.3278	-0.435753
C	1.722817	0.486579	0.525617
O	1.3613	0.441202	1.683914
C	2.780342	1.468239	0.067607
C	2.617515	2.909817	0.583375
O	3.906932	2.903543	1.183744
C	4.059999	1.51448	0.924391
H	1.530631	-0.294762	-1.394194
H	0.517221	-1.007711	-0.168527
H	2.981582	1.410278	-1.012277
H	1.807564	3.006694	1.327892
H	2.511393	3.692286	-0.18763
H	5.002381	1.281346	0.399178
H	3.985687	0.90359	1.841522
