12

C	0.867967	0.2155	0.197988
C	2.185466	0.209234	-0.048956
C	2.998223	-1.043332	-0.221659
C	3.508119	-1.253912	-1.630895
O	3.278643	-0.525297	-2.553713
C	2.899603	1.451218	-0.160884
N	3.503631	2.43878	-0.222764
H	0.314001	1.1496	0.310142
H	0.31613	-0.723196	0.291935
H	2.405317	-1.932541	0.053654
H	3.874037	-1.048071	0.45264
H	4.132922	-2.177041	-1.75582
