14

O	1.088384	0.01134	-0.055324
C	2.285245	0.002655	-0.022097
C	3.25706	-1.180089	0.039281
C	4.540454	-0.348637	-0.02572
C	4.252128	0.668286	-1.151642
C	3.265392	1.171666	-0.070057
N	4.219842	0.705045	0.992402
H	3.108468	-1.872807	-0.802756
H	3.152617	-1.728256	0.986886
H	5.497727	-0.880064	0.065451
H	3.871213	0.317145	-2.126488
H	5.080878	1.377508	-1.300688
H	2.843094	2.182642	-0.024749
H	4.997706	1.369537	1.010601
