20

C	1.791117	0.795253	-1.044966
C	3.283795	1.047377	-0.955833
N	3.567808	2.25135	-0.207428
C	4.970715	2.54888	-0.03188
C	5.142991	3.953494	0.550872
C	4.797045	5.040534	-0.45327
O	4.376302	4.088511	1.731132
H	1.573447	-0.099886	-1.646388
H	1.280713	1.657507	-1.499985
H	1.354901	0.63594	-0.044967
H	3.699033	1.168754	-1.97206
H	3.788894	0.149623	-0.531042
H	3.141475	2.182385	0.71521
H	5.473603	2.500111	-1.012904
H	5.488736	1.816115	0.624977
H	6.195038	4.067239	0.864063
H	3.780045	4.871593	-0.843712
H	5.48894	5.034784	-1.308937
H	4.841538	6.030247	0.024955
H	3.473792	4.283601	1.453982
