19

C	1.788783	-0.582419	-0.797575
N	1.841698	0.541155	0.105049
C	3.080621	1.243755	0.094499
C	3.250627	2.34613	-0.914636
C	3.085355	2.669932	0.545304
C	4.237362	3.232883	1.332568
N	4.300442	4.67261	1.175033
H	0.806032	-1.074411	-0.732302
H	2.56917	-1.355374	-0.621566
H	1.911232	-0.229936	-1.834892
H	1.603269	0.259075	1.052462
H	3.995892	0.664228	0.315941
H	2.403423	2.540332	-1.577112
H	4.238494	2.478167	-1.36748
H	2.10551	3.06956	0.826302
H	5.163334	2.692595	1.03153
H	4.08887	3.006787	2.403688
H	4.433294	4.905262	0.192079
H	5.098333	5.057797	1.675259
