20

C	0.851568	-0.058234	-0.037133
C	2.361887	0.047642	-0.041282
O	2.850591	-0.629649	-1.16286
C	2.938479	1.491441	-0.030389
C	2.442431	2.282154	-1.23732
C	2.600596	2.219363	1.269431
N	4.384342	1.294118	-0.196231
H	0.406728	0.420501	0.846983
H	0.565357	-1.11956	-0.032557
H	0.424245	0.394604	-0.943884
H	2.739703	-0.430533	0.893917
H	3.759143	-0.28743	-1.251225
H	2.611478	1.707903	-2.159528
H	2.973009	3.244632	-1.316451
H	1.369108	2.503448	-1.155706
H	2.94852	1.646457	2.145407
H	1.518446	2.383932	1.382874
H	3.092058	3.204428	1.294202
H	4.799954	0.971925	0.677348
H	4.845887	2.168698	-0.436707
