15

O	1.063614	0.11184	0.860983
C	2.120548	0.035279	0.284558
C	2.836049	1.238211	-0.28499
C	4.309876	1.279092	0.124252
C	4.976101	-0.053119	-0.05112
C	4.29904	-1.205031	-0.09917
C	2.809924	-1.296696	0.051988
H	2.287461	2.142961	0.011391
H	2.778303	1.146989	-1.385424
H	4.39918	1.599725	1.178974
H	4.83883	2.049365	-0.46004
H	6.068075	-0.068947	-0.132173
H	4.842234	-2.146682	-0.231513
H	2.355008	-1.743518	-0.853544
H	2.522615	-1.96966	0.877217
