19

C	-0.680418	5.040755	-0.099252
C	-0.104022	4.083056	0.929825
C	0.449381	2.821094	0.305477
O	0.952148	1.988818	1.324219
C	1.551932	0.825626	0.863926
O	2.730653	1.045068	0.163685
C	3.766778	1.567925	0.949891
H	-1.075413	5.950805	0.375486
H	-1.506709	4.577687	-0.66297
H	0.083004	5.352937	-0.829964
H	-0.871188	3.798069	1.668738
H	0.705215	4.569505	1.500001
H	-0.345895	2.289713	-0.259469
H	1.246762	3.064982	-0.421837
H	0.888739	0.280961	0.164719
H	1.731992	0.20757	1.765017
H	4.645645	1.69299	0.302719
H	4.032245	0.883815	1.779794
H	3.500831	2.546135	1.387268
