19

C	1.182048	0.170647	0.317315
C	2.642043	0.274326	-0.125287
C	2.828821	-0.305969	-1.531438
C	4.275845	-0.382115	-1.992259
O	4.404392	-0.873796	-3.299578
C	3.107072	1.701644	-0.065282
C	4.078065	2.174002	0.717316
H	1.047678	0.557773	1.33826
H	0.835507	-0.874592	0.297832
H	0.526426	0.751959	-0.351403
H	3.260361	-0.315777	0.576092
H	2.259219	0.292882	-2.264195
H	2.390485	-1.32121	-1.556211
H	4.863585	-0.980839	-1.264148
H	4.723006	0.624464	-1.99072
H	4.020775	-1.756305	-3.324592
H	2.575859	2.394036	-0.734095
H	4.632847	1.51749	1.396308
H	4.357256	3.231021	0.710685
