17

N	0.998726	0.072767	0.08825
C	2.446904	-0.047823	0.032173
C	2.841486	-1.452635	-0.447251
C	2.814442	-1.335335	-1.97229
N	3.292107	0.024025	-2.264054
C	2.264975	1.045767	-2.302628
C	3.052654	0.829512	-1.066599
H	0.730645	1.032184	0.298802
H	0.625989	-0.505553	0.838858
H	2.944013	0.188943	0.99455
H	2.180338	-2.240218	-0.052422
H	3.866693	-1.674256	-0.11094
H	3.471727	-2.070904	-2.46093
H	1.793874	-1.492446	-2.360472
H	2.478255	1.905942	-2.948242
H	1.216755	0.727096	-2.271601
H	3.84769	1.529065	-0.782142
