14

C	1.660123	-0.109252	-0.048084
C	0.717536	-1.146467	0.526412
O	-0.398798	-1.405059	-0.301384
N	-1.481748	-0.583483	-0.151991
C	-1.311049	0.63797	0.171987
C	-0.055936	1.470672	0.327812
O	1.004944	1.054645	-0.472641
H	2.165971	-0.513795	-0.937751
H	2.440297	0.117626	0.709179
H	1.246798	-2.106738	0.630991
H	0.358584	-0.86238	1.532857
H	-2.259969	1.176002	0.296139
H	0.224698	1.555019	1.400115
H	-0.308593	2.492009	0.00244
