12

C	0.971151	0.064519	-0.004842
C	2.458853	-0.034272	-0.005464
N	3.21644	1.056492	-0.009219
N	4.469878	0.610855	-0.010391
C	4.559834	-0.738192	-0.006875
C	3.261447	-1.204819	-0.002919
H	0.669744	1.120131	0.005821
H	0.535123	-0.431254	0.876563
H	0.535672	-0.412319	-0.89706
H	5.231272	1.276036	-0.01314
H	5.518165	-1.25368	-0.006986
H	2.933249	-2.241586	0.000823
