17

C	0.885049	0.17396	-0.11542
C	2.089612	0.118628	-0.229796
C	3.540971	0.072634	-0.349645
C	4.255183	1.205932	0.394092
C	5.753186	1.117953	0.262995
C	6.645275	1.695943	1.320032
C	6.535129	0.206464	1.166264
H	-0.183206	0.222358	-0.013244
H	3.815568	0.101152	-1.418746
H	3.906741	-0.897937	0.028475
H	3.973965	1.172862	1.460096
H	3.895254	2.175685	0.01135
H	6.120881	1.196695	-0.767429
H	6.169178	2.157434	2.190696
H	7.57279	2.183608	1.009129
H	7.387698	-0.338663	0.752834
H	5.981457	-0.345438	1.932646
