17

C	0.798516	0.253576	0.459447
C	2.230542	0.172492	-0.032841
C	3.266011	1.037769	0.730295
C	3.926202	-0.30673	1.038806
O	2.86583	-1.033507	0.423698
C	2.307167	0.316384	-1.526635
C	2.827559	-0.604856	-2.335641
H	0.767105	0.160104	1.555261
H	0.206908	-0.563878	0.020926
H	0.337889	1.211081	0.170038
H	2.850702	1.560577	1.603332
H	3.845676	1.742725	0.119109
H	4.894188	-0.47488	0.533409
H	4.041304	-0.561505	2.106481
H	1.896285	1.250295	-1.930781
H	3.226579	-1.533253	-1.917553
H	2.862559	-0.462134	-3.418802
