13

N	1.038839	0.069938	0.211821
C	2.383809	-0.02959	0.033516
C	3.175186	-1.120808	-0.080586
C	4.582004	-0.690297	-0.194621
O	5.583486	-1.361854	-0.313208
N	4.550327	0.69235	-0.14537
C	3.232068	1.219023	0.010183
H	0.478183	-0.757028	0.058635
H	0.584287	0.942594	-0.019312
H	2.876431	-2.167128	-0.092974
H	5.392434	1.24573	-0.19394
H	2.926485	1.881745	-0.823803
H	3.0951	1.787355	0.950359
