17

C	0.890799	0.030654	-0.107104
C	2.401125	0.148312	-0.072513
O	2.985119	-0.595703	-1.142963
C	2.962127	1.556214	-0.052011
C	2.202744	2.654333	-0.113
C	4.468368	1.638687	0.060777
O	5.15176	1.070553	-1.022038
H	0.427711	0.485385	0.780754
H	0.610932	-1.031422	-0.141259
H	0.47333	0.522963	-1.000905
H	2.771917	-0.360464	0.83567
H	2.694374	-0.181363	-1.965862
H	1.111751	2.614742	-0.167546
H	2.65621	3.649731	-0.099431
H	4.763139	1.161379	1.022575
H	4.77378	2.694431	0.13003
H	4.746353	0.202817	-1.169713
