13

O	2.383282	-0.97647	0.445496
C	2.150685	0.152205	0.110601
C	3.186874	1.244624	0.014479
C	3.535548	1.574517	-1.474234
N	3.575236	3.024705	-1.570994
C	3.087805	3.4678	-0.483585
N	2.674979	2.532612	0.446561
H	1.122644	0.486781	-0.193836
H	4.080723	0.923815	0.580136
H	2.755202	1.189233	-2.157397
H	4.485101	1.116029	-1.786632
H	2.953402	4.533999	-0.267207
H	2.668718	2.76795	1.431572
