17

N	1.124957	0.175581	-0.351787
C	2.530863	0.042472	-0.125613
C	3.337835	-0.751169	-1.11388
C	3.455927	0.749918	-1.085726
N	2.863386	1.532974	-2.134335
C	4.697259	1.418196	-0.527581
O	5.523742	1.877569	-1.555854
H	0.71364	0.849848	0.289526
H	0.641176	-0.708503	-0.21219
H	2.884955	-0.001984	0.916559
H	2.788653	-1.182042	-1.956986
H	4.166344	-1.35895	-0.739214
H	1.851123	1.539545	-1.996309
H	3.022442	1.093589	-3.038304
H	5.276794	0.714916	0.092518
H	4.373188	2.249784	0.135587
H	4.920958	2.362847	-2.139539
