12

N	0.968561	-0.053384	0.299605
C	2.264937	-0.048112	0.029573
C	3.039044	1.097738	-0.041874
C	2.443139	2.401882	0.185424
O	1.260012	2.585472	0.446845
C	4.459498	0.985248	-0.348151
O	5.233196	1.910866	-0.437751
H	0.439619	-0.911934	0.345304
H	0.541196	0.866817	0.463472
H	2.738383	-1.02335	-0.146186
H	3.148047	3.259549	0.106385
H	4.812629	-0.072073	-0.505965
