13

N	1.187209	0.361856	1.214595
C	2.162237	0.380434	0.585565
C	3.348872	0.397178	-0.201518
C	4.53702	0.769571	0.30041
N	5.690672	0.777533	-0.491089
C	6.934968	0.398837	0.171367
C	6.679425	1.805726	-0.184465
H	3.277071	0.093022	-1.249622
H	4.617509	1.077622	1.35772
H	7.605353	-0.22187	-0.43123
H	6.887753	0.12549	1.233074
H	6.454386	2.502867	0.63246
H	7.156085	2.260784	-1.058248
