13

O	1.031466	-0.131251	0.365419
C	2.206578	-0.007631	0.096687
C	2.883426	1.266124	-0.020974
C	4.194242	1.457959	-0.282574
O	4.585552	2.727715	-0.32663
C	3.408139	3.555318	-0.178541
C	2.251597	2.615407	0.196103
H	2.857431	-0.903788	-0.082788
H	4.975857	0.714198	-0.454918
H	3.246677	4.061155	-1.143754
H	3.634686	4.318221	0.579157
H	1.362037	2.763435	-0.434176
H	1.923841	2.731367	1.2423
