11

O	1.027374	0.472634	-0.951348
C	1.775953	0.527635	-0.012996
C	1.64233	-0.426369	1.109789
N	1.54436	-1.177228	1.98589
C	2.910303	1.488277	0.110246
C	3.679967	1.825789	-1.12771
N	2.731885	2.755502	-0.582326
H	3.455681	1.4586	1.060036
H	3.371745	1.347628	-2.063616
H	4.756389	1.997317	-1.011298
H	3.189013	3.502156	-0.060988
