15

C	-1.38783	0.676832	0.163131
C	-1.484465	-0.803868	-0.191001
C	-0.28036	-1.587398	0.208549
C	0.958889	-1.097387	0.412904
C	1.48457	0.248421	0.207819
N	0.939626	1.325288	-0.249602
N	-0.356009	1.402247	-0.544807
H	-2.339568	1.174434	-0.076536
H	-1.234748	0.770128	1.256526
H	-1.671228	-0.901522	-1.274152
H	-2.373872	-1.229731	0.306325
H	-0.433883	-2.656309	0.392916
H	1.721893	-1.811112	0.741434
H	2.557865	0.360398	0.401354
H	-0.606858	2.353949	-0.781489
