16

C	2.089547	0.014381	2.60602
O	1.740973	1.306315	2.182167
C	2.592878	1.851228	1.252903
C	2.015487	3.151161	0.757078
O	3.852437	2.082972	1.895378
N	4.881475	1.954303	1.020481
C	6.003335	2.264959	1.527833
H	1.322621	-0.315318	3.319712
H	3.074099	0.00127	3.103204
H	2.117307	-0.69618	1.757545
H	2.797442	1.150085	0.417479
H	1.860356	3.825936	1.611008
H	1.051167	2.974578	0.260781
H	2.710641	3.618753	0.045954
H	6.879847	2.169593	0.882192
H	6.108757	2.612244	2.565114
