14

C	0.961301	-0.028538	0.0005
C	2.41259	0.012681	0.005607
C	3.626671	0.05696	0.002927
C	5.055965	0.029651	-0.000531
C	5.780911	-1.285735	-0.005283
N	5.662122	1.165518	0.000171
O	7.018987	1.009595	-0.00409
H	0.536547	0.987081	0.012556
H	0.574762	-0.565694	0.881482
H	0.581482	-0.541754	-0.897522
H	5.078203	-2.126834	-0.001835
H	6.441408	-1.353338	0.873171
H	6.431171	-1.35251	-0.891443
H	7.343652	1.916008	-0.002581
