18

O	1.089242	0.136098	0.105957
C	2.489567	0.033625	0.085969
C	2.942485	-1.326435	-0.455428
C	2.516731	-1.485367	-1.913541
C	2.947339	-0.283596	-2.748246
N	2.478782	0.943531	-2.124881
C	3.052983	1.139388	-0.806178
H	0.862395	0.439076	-0.788259
H	2.852204	0.164744	1.119726
H	2.510809	-2.126954	0.164885
H	4.041629	-1.399858	-0.3695
H	2.929946	-2.410894	-2.344857
H	1.418396	-1.57408	-1.956239
H	4.056282	-0.295196	-2.855198
H	2.525664	-0.354079	-3.763151
H	2.630944	1.748352	-2.724194
H	4.164626	1.106429	-0.80075
H	2.737338	2.119215	-0.415315
