19

C	1.04526	-0.069393	0.027566
C	2.550115	-0.036296	-0.02614
C	3.343789	-0.692163	-1.128322
C	2.694322	-1.430096	-2.270394
C	3.283148	0.811822	-1.025349
C	4.508915	1.594095	-0.644753
O	5.383323	1.790168	-1.725248
H	0.657512	0.757158	0.643833
H	0.680202	-1.011702	0.467167
H	0.593485	0.027861	-0.97015
H	3.024937	-0.092565	0.961337
H	4.287885	-1.140594	-0.79162
H	1.782168	-0.923349	-2.616847
H	2.415351	-2.455907	-1.981134
H	3.375202	-1.500456	-3.133755
H	2.65826	1.304126	-1.781805
H	5.011512	1.084942	0.205268
H	4.226818	2.597782	-0.286739
H	5.542728	0.925037	-2.118444
