15

N	3.759476	-0.857113	-1.550065
C	3.035208	-0.585821	-0.405336
N	2.30629	-1.415815	0.246077
C	3.161179	0.775184	0.145863
C	4.056807	1.707921	-0.229815
C	4.135812	3.031739	0.357837
C	5.027521	3.965925	-0.004888
H	3.927076	-0.087865	-2.186061
H	3.557698	-1.733415	-2.014745
H	2.2829	-2.328975	-0.217312
H	2.453463	0.980539	0.95358
H	4.795958	1.476316	-1.006846
H	3.4081	3.258035	1.146398
H	5.767341	3.770976	-0.787972
H	5.048512	4.95078	0.466964
