19

C	2.572411	-1.026127	-1.380015
C	2.562491	-0.718509	0.088353
C	1.875979	-1.460058	0.965822
C	3.374847	0.47141	0.53247
C	4.859013	0.32927	0.269824
C	5.465426	0.797715	-1.0217
C	5.739193	1.54389	0.250715
H	2.227854	-0.155242	-1.964076
H	1.926812	-1.881425	-1.623821
H	3.592879	-1.250699	-1.730243
H	1.288771	-2.326229	0.646386
H	1.877793	-1.225094	2.034543
H	3.210636	0.646284	1.608354
H	3.012212	1.375636	0.008202
H	5.298319	-0.575313	0.705693
H	4.801559	1.265799	-1.755133
H	6.273007	0.209132	-1.465363
H	6.736011	1.473244	0.693605
H	5.259837	2.518317	0.385904
