15

O	1.005867	-0.072926	0.271762
C	2.182644	0.014895	0.012206
C	2.921385	1.279171	-0.022274
C	4.241012	1.386319	-0.26319
C	4.701143	2.809102	-0.175951
C	3.381529	3.604645	-0.208662
C	2.29873	2.618234	0.262374
H	2.79482	-0.893954	-0.226714
H	4.904747	0.538521	-0.457108
H	5.254778	2.95724	0.771939
H	5.402405	3.089483	-0.979136
H	3.170872	3.904322	-1.247369
H	3.420779	4.526046	0.389778
H	1.330933	2.744897	-0.245909
H	2.088875	2.705447	1.343426
