18

C	0.963227	-0.082966	-0.001614
C	2.485979	-0.008614	-0.013755
C	3.061036	-0.772351	-1.201464
C	3.008682	1.436635	0.00114
C	2.501087	2.263782	1.173144
O	4.419426	1.467357	-0.046121
H	0.525341	0.337688	0.915514
H	0.624063	-1.127297	-0.078501
H	0.538162	0.464354	-0.860242
H	2.860247	-0.484116	0.916459
H	2.671383	-0.362684	-2.148683
H	2.786915	-1.837815	-1.161797
H	4.156055	-0.687621	-1.229936
H	2.683961	1.919436	-0.939372
H	2.743578	1.771664	2.131539
H	1.413078	2.417592	1.140274
H	2.988269	3.248816	1.16351
H	4.743739	1.069079	0.769935
