17

C	0.716319	0.965477	-0.349271
O	-0.281652	0.034044	0.011456
C	1.041215	-0.444691	-0.13435
C	1.718798	-0.939434	1.109688
C	1.461373	-0.208201	2.443448
C	1.406414	-1.581078	3.140511
C	1.168299	-2.22777	1.763958
H	0.652262	1.365335	-1.369921
H	0.981157	1.70026	0.423019
H	1.191153	-1.074537	-1.02502
H	2.800148	-1.035582	0.912019
H	0.469465	0.27026	2.422339
H	2.20922	0.52256	2.786147
H	2.385297	-1.864846	3.55754
H	0.642139	-1.731029	3.917663
H	1.672866	-3.179308	1.538482
H	0.093695	-2.336799	1.549342
