18

C	1.876362	0.146299	-0.733285
N	1.778456	-0.003567	0.711529
C	0.555138	0.045444	-0.074899
C	-0.369146	1.240341	0.158395
C	-1.769726	0.72019	-0.169702
C	-1.703353	-0.752042	0.238379
C	-0.330079	-1.186974	-0.274371
H	2.244828	1.117853	-1.083828
H	2.211877	-0.706365	-1.337607
H	1.992631	-0.961812	0.986095
H	-0.298962	1.520457	1.221793
H	-0.07849	2.123312	-0.429507
H	-2.570247	1.280041	0.336568
H	-1.958447	0.791312	-1.254854
H	-2.52935	-1.358555	-0.162846
H	-1.739757	-0.833609	1.338467
H	-0.394788	-1.42928	-1.348661
H	0.071863	-2.077537	0.234146
