17

C	1.125321	-0.13096	0.190716
C	2.45932	0.495187	-0.072697
C	3.653469	-0.429622	-0.165526
C	4.135259	-0.690812	-1.598276
O	4.84764	0.368064	-2.164568
N	2.491594	1.763405	-0.23966
N	3.674853	2.368425	-0.560359
H	0.339074	0.634906	0.179589
H	1.115115	-0.64442	1.167082
H	0.894773	-0.893825	-0.572685
H	3.383694	-1.391926	0.296906
H	4.507812	-0.037364	0.418421
H	3.260649	-0.98577	-2.216195
H	4.815627	-1.558779	-1.588076
H	4.325148	1.18056	-2.077865
H	3.617713	3.360843	-0.357263
H	4.513927	1.961406	-0.137234
