15

C	1.132663	-0.675637	-1.050593
C	2.283567	-0.38495	-0.138706
C	2.574074	-1.156917	0.92294
N	3.060897	0.750601	-0.395345
C	3.042518	1.57132	-1.508222
N	3.936892	2.616987	-1.414161
O	2.351284	1.39553	-2.48849
H	1.475299	-0.863307	-2.076785
H	0.450405	0.184737	-1.114427
H	0.583792	-1.549507	-0.676879
H	1.964897	-2.031251	1.151565
H	3.417964	-0.940259	1.584044
H	3.807002	0.90859	0.269971
H	4.196284	2.987805	-0.50953
H	3.839812	3.301128	-2.153212
