19

C	1.061139	0.014027	-0.204299
C	2.551638	0.025657	0.072357
C	3.003784	1.066319	1.091797
O	4.23209	0.611368	1.615276
C	4.444986	-0.734754	1.250889
C	3.121127	-1.252684	0.696266
C	3.245585	-2.441033	-0.236675
H	0.794807	-0.761902	-0.938387
H	0.717953	0.979622	-0.607973
H	0.491016	-0.183956	0.718425
H	3.095634	0.207249	-0.874549
H	2.251678	1.159667	1.902631
H	3.140385	2.068459	0.651048
H	5.236195	-0.800707	0.475436
H	4.794436	-1.30414	2.129063
H	2.469771	-1.526625	1.548337
H	3.873772	-2.192944	-1.107872
H	2.262124	-2.762495	-0.611882
H	3.701801	-3.305878	0.269872
