17

C	0.974592	0.027883	-0.060331
C	2.484542	-0.039148	0.059118
C	3.112424	1.10952	0.861414
N	4.369054	0.545608	1.27565
C	4.373436	-0.823442	1.337877
N	5.342505	-1.49741	1.818533
C	3.035708	-1.27533	0.775474
H	0.583353	-0.814509	-0.651166
H	0.651148	0.957743	-0.554486
H	0.496368	-0.008074	0.932147
H	2.930759	-0.010358	-0.950427
H	2.461922	1.3826	1.719376
H	3.248099	2.018261	0.252031
H	5.083472	1.068968	1.763546
H	5.141308	-2.494849	1.747041
H	3.138973	-2.159922	0.130086
H	2.385058	-1.557321	1.623158
