12

C	1.041191	0.122443	-0.601612
C	2.297805	-0.114664	-0.237102
O	3.225036	0.883682	-0.235287
C	4.510771	0.674894	0.125592
C	5.390112	1.686296	0.140894
C	4.919693	-0.658192	0.490372
N	5.253436	-1.728532	0.78475
H	0.318552	-0.693388	-0.593741
H	0.718643	1.118836	-0.909547
H	2.65696	-1.100751	0.077275
H	5.065654	2.689497	-0.140244
H	6.424397	1.510549	0.432661
