15

C	1.149082	0.000748	0.133069
N	2.56614	-0.031404	-0.054049
N	3.289605	1.170061	-0.138874
C	4.491382	0.791995	-0.891237
C	4.723949	-0.677007	-0.554534
C	3.301836	-1.15938	-0.286995
O	2.877672	-2.293535	-0.293454
H	0.789719	-1.034299	0.05212
H	0.668772	0.627326	-0.634948
H	0.876563	0.394363	1.127531
H	3.569586	1.425943	0.813461
H	4.281554	0.90831	-1.967999
H	5.321709	1.464376	-0.633825
H	5.186058	-1.273257	-1.351992
H	5.321214	-0.81575	0.363607
