15

C	1.057783	0.011459	0.299903
C	2.368118	-0.01818	0.037018
C	3.271976	1.17961	-0.150347
O	4.404409	0.698325	-0.83032
C	4.615368	-0.631112	-0.424274
C	3.241516	-1.19451	-0.137851
C	2.91386	-2.488667	-0.066923
H	0.479936	-0.907075	0.431597
H	0.518785	0.957988	0.394246
H	3.549143	1.600417	0.840508
H	2.814191	1.985988	-0.743163
H	5.151198	-1.168448	-1.22162
H	5.238902	-0.674412	0.49503
H	1.893108	-2.808443	0.157941
H	3.657187	-3.27332	-0.231045
