20

C	0.994585	0.037066	0.156713
N	2.414715	0.001241	-0.082524
C	2.916409	-1.274263	-0.558539
C	2.631452	-1.534789	-2.041025
C	3.164822	-0.384161	-2.892182
C	2.641692	0.956912	-2.380569
C	2.923851	1.09925	-0.881875
H	0.718936	1.001845	0.612268
H	0.718766	-0.754458	0.872209
H	0.353393	-0.09512	-0.742392
H	2.500111	-2.078572	0.069807
H	4.01186	-1.288236	-0.401153
H	3.082263	-2.492553	-2.349727
H	1.543086	-1.638403	-2.196502
H	4.270057	-0.382026	-2.839476
H	2.904978	-0.527537	-3.953921
H	3.102352	1.793278	-2.931796
H	1.554524	1.025682	-2.563352
H	4.019246	1.148184	-0.732624
H	2.511861	2.044501	-0.492298
