16

O	2.232152	-0.344812	-1.378892
C	2.368367	0.037781	-0.035876
C	3.128058	1.338743	0.01488
C	2.463494	2.613038	-0.543949
C	3.075221	3.398416	0.632815
C	3.278339	2.059024	1.36937
H	1.730992	-1.164318	-1.415647
H	2.912379	-0.724433	0.562031
H	1.381377	0.181971	0.454809
H	4.113261	1.187311	-0.45749
H	1.364898	2.550235	-0.469216
H	2.72192	2.918734	-1.56806
H	4.036765	3.858922	0.358177
H	2.454336	4.164626	1.121646
H	4.211557	1.910833	1.934459
H	2.430364	1.831428	2.037273
