16

O	2.000432	-0.141184	-1.289182
C	2.229642	0.169261	0.061176
C	3.397518	1.130812	0.116341
N	3.175701	2.402318	-0.573991
C	2.810496	3.065431	0.679066
C	3.51283	1.919281	1.442476
O	4.811588	2.18685	1.864445
H	1.210693	-0.685781	-1.351596
H	2.470064	-0.728398	0.66701
H	1.340266	0.646349	0.524192
H	4.318072	0.60139	-0.192931
H	2.496334	2.378098	-1.33138
H	3.247272	4.067894	0.832259
H	1.726164	3.123843	0.895536
H	2.975083	1.499414	2.306699
H	5.290136	2.547463	1.108018
