17

N	1.029845	-0.006066	-0.033276
C	2.479281	-0.043878	0.008361
C	2.971563	-1.258176	-0.802496
C	3.294876	-0.674452	-2.147969
C	3.302363	0.659957	-2.126436
C	3.044491	1.198772	-0.744517
N	4.259573	1.794596	-0.220267
H	0.680347	0.806803	0.471235
H	0.635021	-0.822486	0.429192
H	2.900068	-0.057083	1.037629
H	2.194393	-2.039888	-0.857309
H	3.861036	-1.735773	-0.352971
H	3.510294	-1.288931	-3.026294
H	3.538784	1.312938	-2.969377
H	2.268569	1.987138	-0.762808
H	5.006924	1.102623	-0.199896
H	4.122421	2.112294	0.737419
