15

C	1.012665	-0.041391	-0.177561
N	2.433371	0.085786	-0.367601
C	3.059169	1.215399	0.271819
C	4.520862	1.233124	-0.133676
O	5.133909	-0.000934	0.187286
C	4.336161	-1.083764	0.055411
N	3.090144	-1.103512	-0.200148
H	0.509465	0.863705	-0.550449
H	0.729121	-0.189257	0.885344
H	0.654848	-0.906161	-0.751704
H	2.564343	2.146352	-0.046749
H	2.984963	1.153942	1.380378
H	5.077382	2.017787	0.398247
H	4.606186	1.414284	-1.218603
H	4.880479	-2.022709	0.182975
