14

C	0.946838	-0.148007	-0.146597
C	2.437258	0.015149	0.138859
C	2.897915	1.435203	0.076839
C	3.374401	2.241003	1.068479
O	3.657692	3.455498	0.591803
N	3.376564	3.501212	-0.737205
C	2.926661	2.314364	-1.047595
H	0.649475	-1.206736	-0.107995
H	0.687378	0.235706	-1.145585
H	0.340346	0.405144	0.586188
H	3.018767	-0.58434	-0.581945
H	2.675686	-0.395016	1.133145
H	3.563743	2.083154	2.129071
H	2.632685	2.111135	-2.078193
