14

O	1.874069	0.154815	1.383108
C	2.584414	-0.028968	0.430202
C	2.762711	-1.334758	-0.336966
C	4.196282	-1.290718	-0.883053
C	4.520274	0.189535	-0.972721
N	3.482498	0.946533	-1.641726
C	3.53734	0.963681	-0.168156
H	2.027187	-1.32834	-1.15805
H	2.538691	-2.192714	0.310708
H	4.894149	-1.769908	-0.17779
H	4.304111	-1.793256	-1.856483
H	5.562843	0.517122	-1.044514
H	3.855631	1.829667	-1.987457
H	3.77203	1.88372	0.372917
