11

C	0.983538	-0.026736	0.003443
C	2.503779	0.023898	0.008318
C	3.056441	1.441178	0.00716
H	0.60808	-1.06134	0.003116
H	0.570235	0.477268	-0.885804
H	0.564471	0.47884	0.889078
H	2.892728	-0.52299	-0.868632
H	2.886954	-0.519308	0.8901
H	2.721987	1.999125	-0.88324
H	4.157412	1.450817	0.012216
H	2.713805	2.003698	0.891535
