16

C	2.025274	-0.671113	-1.221278
O	1.741154	0.400769	-0.369688
C	2.855765	1.103867	0.081712
C	3.711755	0.3735	1.084224
C	3.480522	2.065789	-0.892336
C	2.613784	2.567616	0.234888
H	2.639883	-0.3613	-2.088443
H	1.066777	-1.058671	-1.593957
H	2.551907	-1.498352	-0.708587
H	4.51425	1.023351	1.461419
H	4.186557	-0.517636	0.644567
H	3.096866	0.049734	1.938347
H	3.054335	2.096158	-1.898714
H	4.55957	2.238575	-0.845719
H	3.08601	3.089234	1.072136
H	1.610031	2.913649	-0.022232
