13

C	1.061672	0.147099	-0.609507
O	2.46752	0.220163	-0.671654
C	3.098191	1.334966	-0.291477
N	2.351116	2.468381	-0.144185
C	4.437736	1.258612	-0.030725
C	5.170499	2.430093	0.251346
N	5.724874	3.429465	0.477298
H	0.802243	-0.909086	-0.75163
H	0.581382	0.727801	-1.417055
H	0.677029	0.492704	0.363342
H	1.6046	2.632272	-0.808695
H	2.875011	3.301505	0.102531
H	4.925127	0.284557	-0.040289
