17

C	2.584438	-0.465174	0.145695
O	3.875828	0.055975	0.29762
C	4.124194	1.291529	-0.21085
N	3.301037	2.049803	-0.823983
N	5.421477	1.660645	0.029305
C	6.427176	0.73793	0.485196
C	5.89281	2.911619	-0.504759
H	2.598332	-1.470259	0.585461
H	2.297557	-0.54406	-0.917635
H	1.830732	0.144024	0.674767
H	2.366383	1.656454	-0.868712
H	5.968057	-0.112659	0.998545
H	7.104767	1.246686	1.191305
H	7.044832	0.349822	-0.348682
H	5.032041	3.557619	-0.712478
H	6.455717	2.771352	-1.447739
H	6.56118	3.402286	0.222353
