16

C	0.946432	-0.011431	-0.014437
C	2.471031	-0.06247	0.032981
C	2.957398	-0.806573	1.266934
O	2.975971	-0.777126	-1.071226
C	3.020765	1.385308	0.013651
C	4.476043	1.449616	-0.017093
N	5.631922	1.501663	-0.02701
H	0.596946	0.512017	-0.920032
H	0.527454	0.511954	0.858047
H	0.544682	-1.034437	-0.034977
H	2.608932	-0.318447	2.188683
H	4.056241	-0.848722	1.276976
H	2.575992	-1.836766	1.245166
H	2.632305	-0.381652	-1.880028
H	2.661646	1.944447	0.893152
H	2.633162	1.914339	-0.874048
