19

C	0.734527	0.289195	0.550745
C	1.830889	0.154098	-0.496854
C	3.117599	0.854473	-0.112083
C	3.879917	0.212032	1.039945
N	5.052381	0.977836	1.41672
C	3.875061	1.617023	-1.129473
N	3.058887	2.305474	-0.136259
H	-0.21646	-0.131845	0.191296
H	0.571659	1.352919	0.781549
H	0.983501	-0.228661	1.490114
H	1.476967	0.588458	-1.444629
H	2.045033	-0.910004	-0.703468
H	4.091273	-0.844953	0.778101
H	3.202732	0.179116	1.90998
H	5.867364	0.703514	0.875149
H	5.287143	0.839783	2.394497
H	3.507891	1.655899	-2.161618
H	4.965187	1.684227	-1.034037
H	3.693069	2.639125	0.595756
