15

C	0.806989	2.11606	-0.651649
N	2.089447	1.620691	-0.253865
C	3.070805	2.430871	-0.227779
C	4.409846	2.032181	0.149143
C	5.430948	2.915384	0.184707
N	6.700846	2.65513	0.638918
O	7.691184	3.438583	0.061377
H	0.068573	1.932379	0.14842
H	0.444686	1.557699	-1.532037
H	0.789633	3.199007	-0.898011
H	2.944139	3.502793	-0.503786
H	4.554349	0.981752	0.42143
H	5.285415	3.963062	-0.100294
H	6.977207	1.675055	0.620926
H	8.081412	3.913365	0.805562
