17

C	3.640577	-0.689429	-1.334901
O	3.060635	-0.106618	-0.201936
C	3.506236	1.104001	0.176172
C	4.459842	1.852453	-0.397756
C	4.879921	3.178977	0.119939
C	4.790187	3.539675	1.574861
C	6.133689	3.323624	0.94526
H	3.155567	-1.662949	-1.480902
H	4.727192	-0.842741	-1.201755
H	3.484852	-0.069358	-2.236717
H	2.973495	1.445309	1.06874
H	4.969211	1.501516	-1.30061
H	4.700438	4.008663	-0.576207
H	4.435275	2.781656	2.277854
H	4.4918	4.558867	1.834567
H	6.77791	4.189715	0.767873
H	6.667843	2.404598	1.20387
