17

C	1.089802	0.082992	-0.408785
N	2.454941	0.31247	-0.822746
C	3.031323	1.552389	-0.355009
C	4.551461	1.597911	-0.472806
O	5.159417	2.651107	-0.449745
N	5.122964	0.374809	-0.565096
C	6.542136	0.179742	-0.639683
H	0.724698	-0.866168	-0.828514
H	0.380307	0.88337	-0.706832
H	1.044062	-0.005585	0.688996
H	2.524955	0.265352	-1.837244
H	2.803205	1.664532	0.71939
H	2.644587	2.467519	-0.845053
H	4.472556	-0.406151	-0.552699
H	7.014597	1.17137	-0.652208
H	6.833011	-0.361847	-1.555375
H	6.92631	-0.380042	0.22988
