15

N	0.86997	-0.184882	0.083117
C	2.1396	-0.062345	0.026144
C	2.879791	1.259889	-0.102803
C	4.417742	1.256944	0.011083
C	5.035025	-0.104694	-0.042977
C	4.289255	-1.21607	-0.01676
N	2.908089	-1.199752	0.052192
H	0.424933	0.732897	0.049822
H	2.441806	1.933795	0.649305
H	2.572776	1.67446	-1.077233
H	4.719879	1.758943	0.948547
H	4.840016	1.886045	-0.790903
H	6.121323	-0.196523	-0.096361
H	4.734514	-2.212996	-0.045359
H	2.386031	-2.065472	0.095756
