20

C	2.774471	-1.159758	-0.693639
C	2.370798	0.048921	0.138087
C	3.412617	1.13854	0.136286
C	3.497243	2.117902	-1.000502
C	3.041912	2.577194	0.352734
N	3.928709	3.387185	1.118767
C	3.691925	3.336249	2.540993
H	1.999987	-1.942574	-0.679358
H	3.707824	-1.606606	-0.315479
H	2.950054	-0.875814	-1.743585
H	2.170501	-0.261546	1.178742
H	1.419222	0.460331	-0.241245
H	4.378775	0.862919	0.574715
H	2.751137	2.047626	-1.798259
H	4.488848	2.445397	-1.321068
H	1.957706	2.768964	0.459969
H	3.910271	4.346568	0.781726
H	3.86474	2.311473	2.908039
H	2.662709	3.623196	2.849616
H	4.398221	3.996184	3.067242
