10

C	-1.256023	-0.003203	-0.158122
C	-0.401541	-1.245255	0.090638
C	0.958198	-0.618183	-0.013364
N	0.936512	0.65446	-0.065418
O	-0.349354	1.105178	-0.045608
H	-1.68904	0.002501	-1.173407
H	-2.065687	0.142048	0.570928
H	-0.564322	-2.043052	-0.649658
H	-0.54814	-1.691171	1.089991
H	1.917647	-1.139023	-0.00076
