16

N	0.93998	-0.148181	0.006401
C	2.388384	-0.15455	-0.005055
C	2.931736	1.269257	-0.109323
C	4.417335	1.333753	-0.008058
C	5.232629	1.786052	-0.977179
C	6.650931	1.836006	-0.877645
C	7.862895	1.889114	-0.81805
H	0.579829	-1.089852	0.142653
H	0.582736	0.162363	-0.895909
H	2.845554	-0.764053	-0.814739
H	2.741316	-0.598829	0.942206
H	2.469881	1.85826	0.703098
H	2.597716	1.72488	-1.058064
H	4.867026	0.969483	0.924113
H	4.797421	2.150497	-1.916832
H	8.934682	1.936071	-0.760959
