14

O	2.820811	-0.928645	-0.65319
C	2.250137	0.173738	-0.006329
C	1.792868	-0.263256	1.322998
N	1.428148	-0.574338	2.375099
C	3.211857	1.332856	0.118606
C	3.363139	2.26896	-1.048814
C	2.696457	2.734948	0.210134
H	3.251942	-0.593087	-1.44747
H	1.341852	0.532378	-0.537673
H	4.11475	1.085136	0.685997
H	2.731008	2.104387	-1.927818
H	4.364019	2.639693	-1.281969
H	3.229487	3.432245	0.860107
H	1.612406	2.882634	0.190732
