13

C	0.974326	-0.004777	0.050904
C	2.47781	-0.090337	0.094818
O	3.07855	-1.139211	0.14814
C	3.179059	1.18565	0.07242
C	3.747561	2.263562	0.052501
C	4.452977	3.496496	0.040308
C	3.882213	4.684537	-0.212667
H	0.603709	0.568733	0.915325
H	0.551059	-1.016939	0.062145
H	0.649598	0.531879	-0.854425
H	5.5278	3.44188	0.250712
H	2.814127	4.769954	-0.428695
H	4.476501	5.601293	-0.213897
