19

C	0.86735	0.151533	-0.412275
C	2.302569	-0.028691	0.020279
C	2.569327	0.045755	1.509617
C	2.317575	1.415755	2.126497
N	2.757984	1.435199	3.508442
C	3.198455	-0.880122	-0.797685
N	3.285263	0.572925	-0.877883
H	0.78375	0.065933	-1.504891
H	0.487572	1.144771	-0.127305
H	0.219024	-0.608557	0.051894
H	3.61835	-0.226101	1.715823
H	1.950008	-0.70971	2.027801
H	1.251801	1.693771	1.984432
H	2.901492	2.166751	1.566147
H	2.189974	0.799777	4.066876
H	2.630017	2.359818	3.913497
H	2.811639	-1.378387	-1.694385
H	3.99189	-1.434486	-0.281949
H	4.089988	0.905495	-0.346272
