17

C	2.305571	-0.555199	-1.457139
C	2.410263	0.079422	-0.078696
C	3.32048	1.291777	-0.046552
C	2.730804	2.615341	-0.594514
N	2.693157	3.154278	0.76062
C	3.445671	2.029008	1.306127
H	1.635649	-1.428326	-1.45518
H	3.292256	-0.889175	-1.816439
H	1.913953	0.163192	-2.195676
H	2.770231	-0.66303	0.655172
H	1.407914	0.38814	0.268712
H	4.296186	1.048943	-0.497554
H	1.73558	2.526092	-1.071059
H	3.399576	3.136451	-1.305658
H	3.048432	4.09129	0.914319
H	4.491566	2.238078	1.600009
H	2.94813	1.531559	2.159776
