12

C	1.084438	-0.062401	0.108447
C	2.392313	0.007949	-0.137049
C	3.329119	1.186119	-0.009822
O	4.45938	0.771809	-0.739684
C	4.486734	-0.608619	-0.613361
O	3.142649	-1.037524	-0.566926
H	0.543268	-1.002066	-0.00833
H	0.542451	0.828503	0.426076
H	3.579302	1.374289	1.054477
H	2.928963	2.112136	-0.444704
H	4.986747	-1.053467	-1.486756
H	4.999138	-0.926957	0.321073
