20

C	3.387601	-1.714304	0.407491
C	2.774371	-0.391338	-0.051009
N	1.324767	-0.340119	0.075299
C	3.363866	0.811932	0.684698
C	4.841688	1.024158	0.476639
C	5.329904	1.671392	-0.788012
C	5.418762	2.408484	0.51655
H	4.473131	-1.759072	0.224259
H	2.928685	-2.561908	-0.125746
H	3.21906	-1.865268	1.487934
H	3.007635	-0.260937	-1.124231
H	1.063368	-0.453693	1.055283
H	0.90077	-1.124653	-0.416929
H	3.153296	0.708124	1.766651
H	2.810636	1.705215	0.350068
H	5.485996	0.2378	0.885265
H	4.575166	1.999967	-1.509645
H	6.252985	1.3042	-1.244182
H	6.403956	2.550571	0.968359
H	4.727775	3.240618	0.682118
