18

N	1.007648	0.02083	0.0801
C	2.461906	0.015187	0.044635
C	2.954383	-1.313218	-0.537598
C	2.604584	-1.425998	-2.014837
O	3.123698	-0.34453	-2.747629
C	2.608056	0.889183	-2.313589
C	2.95558	1.152636	-0.854595
H	0.664734	0.896294	0.470681
H	0.663629	-0.720962	0.686669
H	2.919705	0.14433	1.049002
H	2.524423	-2.162248	0.021504
H	4.049273	-1.371433	-0.421396
H	3.036405	-2.339463	-2.450891
H	1.50371	-1.476975	-2.130514
H	3.044462	1.661165	-2.965181
H	1.507655	0.913577	-2.441493
H	4.050169	1.238077	-0.7558
H	2.524841	2.115477	-0.528899
