17

C	1.01977	0.073657	0.173571
C	2.510527	-0.0667	-0.105546
C	2.911679	-1.453559	-0.647639
O	3.018457	-1.330379	-2.052562
C	3.424921	-0.029584	-2.346014
C	2.323341	0.966345	-2.508084
C	3.062301	0.855889	-1.195004
H	0.759011	1.109178	0.439923
H	0.712829	-0.577019	1.007447
H	0.417312	-0.208715	-0.703298
H	3.060871	0.135592	0.827496
H	2.168262	-2.235661	-0.426654
H	3.881003	-1.771679	-0.215449
H	4.365942	0.055863	-2.901698
H	2.512706	1.858169	-3.112567
H	1.30886	0.567073	-2.583443
H	3.705579	1.687311	-0.896348
