16

C	-1.666777	0.985573	0.334001
C	-1.329709	-0.363844	-0.242353
C	-0.373664	-1.362786	0.508671
C	0.936278	-0.855327	-0.119812
N	2.102124	0.015768	-0.006777
C	0.772453	0.598507	0.14966
C	-0.516583	0.892388	-0.625225
H	-2.593417	1.452241	-0.012921
H	-1.444999	1.1835	1.388997
H	-2.05175	-0.794186	-0.944161
H	-0.429622	-1.255286	1.603815
H	-0.612651	-2.407678	0.25438
H	0.851829	-1.061307	-1.194671
H	2.564006	0.073019	0.902288
H	0.572599	0.793159	1.213536
H	-0.560546	1.349068	-1.617628
