18

C	1.055916	-0.174551	-0.03717
C	2.57105	-0.075951	0.013434
C	3.078882	1.362807	0.028382
O	2.52158	2.093086	1.101791
C	4.60296	1.445498	0.033163
C	5.123741	2.872312	0.001434
H	0.712522	-1.217795	0.024065
H	0.661964	0.254019	-0.972901
H	0.606628	0.389473	0.793177
H	3.022892	-0.604923	-0.843106
H	2.955637	-0.587838	0.916603
H	2.704787	1.87395	-0.878278
H	2.82709	1.682894	1.919848
H	4.994815	0.870648	-0.823557
H	4.974721	0.924844	0.936944
H	4.835325	3.378126	-0.934372
H	6.220758	2.908091	0.078941
H	4.695362	3.45456	0.830292
