19

C	1.533276	3.151804	0.94241
O	2.86333	2.758536	0.829086
C	3.071262	1.731555	-0.096961
C	4.560728	1.444486	-0.183724
C	5.351423	2.618094	-0.669456
C	6.169601	2.612307	-1.726055
C	6.954539	3.784133	-2.216238
H	1.478046	3.95386	1.692529
H	0.877076	2.320073	1.271214
H	1.128645	3.538776	-0.014776
H	2.681959	2.021073	-1.096463
H	2.523255	0.81435	0.208185
H	4.720472	0.571581	-0.837198
H	4.899349	1.158945	0.828373
H	5.21397	3.545542	-0.099844
H	6.29015	1.675986	-2.288997
H	6.775496	4.678476	-1.600819
H	6.696465	4.031016	-3.260059
H	8.037889	3.573667	-2.205565
