13

C	1.4425	-0.431367	-0.31477
N	2.613429	-0.198003	0.121647
N	3.056003	1.076574	-0.194575
C	4.18722	1.343335	0.328429
C	4.810442	2.660934	0.122935
C	5.558017	3.303326	1.217978
O	6.225518	2.681754	0.154944
H	1.004193	-1.415838	-0.11776
H	0.865218	0.32101	-0.876256
H	4.727436	0.606327	0.947528
H	4.330718	3.291597	-0.63681
H	5.629978	2.802304	2.19294
H	5.60429	4.400416	1.24862
