13

C	0.406197	1.428209	0.294278
C	1.319774	0.321189	-0.189115
O	0.969687	-0.930023	0.377921
N	-0.34049	-1.299483	0.323759
C	-1.224938	-0.413403	0.068999
C	-1.01171	1.058942	-0.116901
H	0.714584	2.399401	-0.120335
H	0.481995	1.497794	1.391448
H	2.36826	0.478506	0.100169
H	1.27171	0.242287	-1.293409
H	-2.245493	-0.813293	0.03738
H	-1.203794	1.327226	-1.171213
H	-1.765874	1.605147	0.472389
