12

N	0.993951	-0.008249	0.061056
C	2.346753	-0.091842	-0.145448
N	3.044608	-1.152685	-0.29202
C	3.022728	1.228047	-0.237697
C	4.348996	1.320706	-0.415114
C	5.034155	2.56493	-0.505487
N	5.61048	3.569642	-0.578222
H	0.577902	0.860503	0.364013
H	0.47383	-0.849679	0.267482
H	2.480345	-2.000016	-0.204185
H	2.414562	2.134485	-0.159049
H	4.93002	0.394967	-0.496267
