20

C	3.892775	3.473899	-3.162031
C	3.901107	2.267254	-2.254927
O	4.935849	2.405435	-1.324896
C	5.04017	1.340421	-0.422553
C	6.152846	1.624684	0.561752
C	5.910146	2.86247	1.410505
N	6.989967	3.050401	2.36293
H	3.090271	3.395448	-3.910428
H	4.854478	3.564775	-3.688478
H	3.737451	4.392704	-2.577186
H	4.035214	1.337352	-2.84808
H	2.924186	2.166312	-1.735225
H	5.240909	0.391408	-0.962775
H	4.079686	1.197384	0.119244
H	7.094854	1.744842	-0.002636
H	6.289077	0.754739	1.224553
H	4.971039	2.72183	1.97538
H	5.734488	3.719791	0.729072
H	7.857221	3.250719	1.866347
H	6.810266	3.865893	2.944851
