12

C	0.994867	-0.030339	-0.009872
C	2.519442	0.006236	-0.04585
O	3.051091	-0.697117	-1.136448
C	3.016784	1.390105	0.000962
C	3.409625	2.541307	-0.003636
C	3.857984	3.841295	0.01156
N	4.235742	4.941149	0.021575
H	0.601197	0.455992	0.894366
H	0.663013	-1.077696	-0.027676
H	0.575375	0.488932	-0.885935
H	2.909665	-0.506066	0.850808
H	2.728185	-0.286419	-1.947594
