20

C	2.382352	-0.67049	1.469714
C	2.710367	-0.239272	0.034609
N	1.597386	-0.385175	-0.896337
C	3.181983	1.188539	0.00913
C	4.442065	1.647971	0.005057
C	5.662928	0.77453	0.002335
C	4.728929	3.122076	0.010322
H	3.264872	-0.604287	2.1255
H	2.015181	-1.710303	1.491359
H	1.596842	-0.024533	1.896529
H	3.518942	-0.890993	-0.338086
H	0.819374	0.199659	-0.589614
H	1.248744	-1.342281	-0.871691
H	2.372481	1.931876	0.027191
H	5.432611	-0.298501	-0.038979
H	6.266272	0.954712	0.909135
H	6.311501	1.018018	-0.856719
H	3.808585	3.72313	0.016042
H	5.321201	3.410003	-0.875749
H	5.329876	3.40514	0.892252
