18

C	1.006952	-0.380813	-0.358978
C	2.451948	-0.024203	-0.41134
C	3.042984	1.083488	0.084846
C	2.279626	2.162652	0.813392
N	1.81572	3.185052	-0.112843
C	4.472767	1.290464	-0.156124
C	5.201058	2.361471	0.19445
H	0.839458	-1.282625	0.255446
H	0.639078	-0.624225	-1.369367
H	0.380823	0.43203	0.031384
H	3.099628	-0.74368	-0.929294
H	2.927537	2.543589	1.6304
H	1.404544	1.720601	1.314581
H	2.600695	3.535389	-0.659099
H	1.444646	3.98338	0.398797
H	4.975425	0.478107	-0.695969
H	4.768293	3.21511	0.724518
H	6.263959	2.423494	-0.049449
