17

C	2.477394	-0.413393	1.488326
C	2.673187	-0.003412	0.031155
C	3.219181	1.373466	-0.107207
C	4.352845	1.822895	-0.663029
C	4.449789	3.306109	-0.432875
C	3.03754	3.606605	0.097952
O	2.45606	2.350919	0.454984
H	2.031707	-1.416697	1.559455
H	1.813209	0.296496	2.002511
H	3.437786	-0.425999	2.025955
H	1.702813	-0.041832	-0.494434
H	3.348232	-0.700221	-0.48755
H	5.110968	1.200659	-1.135526
H	5.237991	3.553155	0.302707
H	4.673774	3.886443	-1.342611
H	2.405946	4.065247	-0.683641
H	3.020219	4.26076	0.98204
