16

C	1.740313	-0.5104	-0.510171
O	3.044365	-0.023745	-0.423603
C	3.130737	1.290799	0.040173
C	4.609829	1.689797	-0.001803
N	5.218231	1.54908	-1.311983
C	4.77083	3.048785	0.518378
C	4.865022	4.175869	0.950371
H	1.788646	-1.541388	-0.887974
H	1.118317	0.090607	-1.203474
H	1.235335	-0.521054	0.476007
H	2.73312	1.383224	1.0717
H	2.546076	1.981887	-0.603872
H	5.137513	1.001612	0.684509
H	4.805762	2.22507	-1.953864
H	4.974341	0.625051	-1.666557
H	4.961403	5.175266	1.332751
