14

C	0.984781	-0.069082	-0.014515
C	2.492612	0.052188	-0.034526
S	3.086375	1.747697	0.055682
C	2.635321	2.484729	-1.509686
O	2.323049	2.431389	1.098836
O	4.544972	1.692555	0.107634
H	0.689426	-1.125678	0.059812
H	0.526729	0.338868	-0.928261
H	0.573184	0.472141	0.849149
H	2.971753	-0.399745	-0.916471
H	2.962255	-0.389707	0.859117
H	3.140795	1.951391	-2.324504
H	3.006206	3.516437	-1.444343
H	1.544251	2.482556	-1.627394
