17

C	2.863419	-1.085405	-0.47787
N	2.396073	0.129034	0.146174
C	3.363444	1.17388	0.193116
C	3.474066	2.07552	-1.004784
C	2.877274	2.590411	0.274835
C	3.60138	3.611143	1.110008
H	2.065355	-1.844623	-0.473755
H	3.763503	-1.533134	-0.00294
H	3.120555	-0.884893	-1.530542
H	2.035194	-0.058472	1.078135
H	4.315373	0.963431	0.714716
H	2.794237	1.868406	-1.835312
H	4.466556	2.43328	-1.293568
H	1.785208	2.679306	0.264122
H	4.689239	3.437134	1.095575
H	3.272426	3.580151	2.161429
H	3.425819	4.632092	0.734211
