16

C	4.254053	3.998324	-2.235202
C	3.110139	3.728209	-1.284086
O	3.505114	3.871694	0.075884
C	4.140509	2.8159	0.625812
O	4.361718	1.775256	0.049323
N	4.483383	3.099481	1.9068
C	5.158591	2.154788	2.751377
H	3.900967	3.956007	-3.277041
H	5.041823	3.242206	-2.106908
H	4.684151	4.99586	-2.057708
H	2.708028	2.714952	-1.438887
H	2.29667	4.455715	-1.419492
H	4.222921	4.0098	2.260615
H	5.337658	1.246874	2.160614
H	4.552699	1.883192	3.631572
H	6.130084	2.539974	3.101805
