19

C	1.559325	-0.505654	-0.875212
O	2.226064	0.0516	0.216022
C	3.017424	1.178854	-0.057924
C	4.201198	0.852254	-0.954356
C	2.262753	2.467983	-0.485005
C	3.078365	3.242281	0.56812
C	3.427304	1.900397	1.237704
H	0.872676	-1.271726	-0.48694
H	2.241026	-0.995334	-1.596797
H	0.959531	0.243975	-1.428769
H	4.860707	1.727017	-1.05771
H	3.881273	0.561293	-1.966507
H	4.78354	0.026281	-0.517506
H	1.202266	2.391067	-0.200306
H	2.332609	2.78593	-1.536995
H	3.959685	3.737148	0.132453
H	2.538337	3.982004	1.176577
H	4.453792	1.742558	1.602689
H	2.715334	1.637841	2.033195
