15

O	1.530245	-0.24304	-0.790173
C	2.730295	0.061799	-0.176178
C	3.524393	-1.021438	0.506294
C	4.014025	-0.404908	-0.776806
O	4.976016	0.590719	-0.652963
C	4.302928	1.826521	-0.479117
C	3.000981	1.500771	0.263114
H	0.8899	-0.447063	-0.099812
H	3.118644	-2.035006	0.439217
H	4.071965	-0.780416	1.421922
H	4.032416	-0.992766	-1.701198
H	4.973374	2.508605	0.065194
H	4.076895	2.280075	-1.464324
H	3.116002	1.588571	1.355794
H	2.166313	2.142547	-0.052883
