17

C	1.253103	-0.307535	-0.210244
N	2.673185	-0.205258	0.004427
C	3.195356	1.13752	-0.1121
C	4.663293	1.174379	0.172468
C	5.590071	1.665924	-0.655384
C	7.056378	1.717941	-0.381712
H	0.93323	-1.358386	-0.142161
H	0.900019	0.092718	-1.187755
H	0.713044	0.247405	0.575285
H	3.177168	-0.820912	-0.629291
H	2.667042	1.76485	0.63206
H	2.993541	1.611708	-1.101121
H	4.966215	0.744612	1.136034
H	5.258865	2.075797	-1.619706
H	7.304087	1.280222	0.596736
H	7.427994	2.756481	-0.394009
H	7.62668	1.174824	-1.153997
