15

C	3.201654	-0.430097	1.577002
O	2.339043	0.53731	1.012175
C	2.866824	1.355096	0.112035
N	4.083485	1.295249	-0.246131
N	4.394521	2.273305	-1.214807
C	5.392242	1.795926	-2.162104
C	5.769298	2.736745	-1.089598
H	2.597383	-1.006578	2.288479
H	4.047487	0.049994	2.093819
H	3.613546	-1.092495	0.799413
H	2.144198	2.081843	-0.285605
H	5.255216	2.136759	-3.193309
H	5.710461	0.754948	-2.043944
H	6.340647	2.328634	-0.249238
H	5.922477	3.800511	-1.296307
