13

C	0.385698	1.389939	0.523541
O	1.305807	0.345638	0.265269
C	0.611903	-0.505012	-0.658593
O	-0.140194	0.384912	-1.426282
C	-0.843659	0.937368	-0.318975
C	-1.377943	-0.299099	0.378593
C	-0.449802	-1.235394	0.153108
H	0.784348	2.346395	0.147482
H	0.168797	1.476279	1.600783
H	1.334406	-1.074151	-1.254805
H	-1.545797	1.721689	-0.624736
H	-2.251075	-0.339388	1.030715
H	-0.36922	-2.240035	0.567491
