14

N	1.764195	-0.38681	-1.075323
C	2.728774	-0.166206	-0.019481
C	3.142936	1.275396	0.02213
C	2.440367	2.365069	-0.426223
C	3.120863	3.595806	-0.199377
C	4.329541	3.42294	0.419728
S	4.647831	1.759331	0.720257
H	1.410649	-1.339566	-1.044541
H	2.203201	-0.258152	-1.985219
H	3.64098	-0.798449	-0.077254
H	2.249275	-0.427393	0.941777
H	1.464552	2.260869	-0.900622
H	2.729929	4.573506	-0.485286
H	5.054107	4.181739	0.712953
