17

C	0.757859	-0.741378	-0.166277
C	2.258155	-0.744419	0.073947
C	2.866187	0.635191	-0.052323
O	4.249522	0.533146	0.190386
C	5.002496	1.658465	0.097302
N	6.302167	1.354201	0.399204
N	4.630342	2.83983	-0.189336
H	0.33829	-1.75405	-0.07859
H	0.511071	-0.368184	-1.173394
H	0.23318	-0.101857	0.561297
H	2.764028	-1.413075	-0.641732
H	2.489725	-1.13484	1.078604
H	2.401468	1.329908	0.67385
H	2.684628	1.04684	-1.064231
H	6.586375	0.393206	0.269261
H	6.973326	2.065073	0.144384
H	3.626021	2.913364	-0.325502
