15

C	0.983602	0.017732	-0.007801
C	2.504546	0.108564	-0.047034
C	3.029234	1.420922	0.490994
C	3.769239	1.264915	1.597068
C	3.929684	-0.185463	1.896771
O	4.576255	-0.903476	0.845498
C	3.169535	-0.910854	0.86679
H	0.635019	-0.957317	-0.383738
H	0.521285	0.801144	-0.626832
H	0.611544	0.140851	1.021462
H	2.857653	-0.043981	-1.083624
H	2.820063	2.376118	0.00161
H	4.234414	2.065308	2.175084
H	4.108958	-0.563864	2.90902
H	2.692271	-1.883541	1.04418
