15

O	1.378885	-0.312033	-1.138987
C	2.083376	0.104752	-0.259636
C	2.806913	1.421252	-0.283946
C	4.287946	1.282684	0.065164
C	5.020742	2.613564	0.116367
C	4.635106	3.498076	1.270179
O	3.840762	3.201575	2.123362
H	2.24442	-0.494002	0.678499
H	2.324261	2.065122	0.47298
H	2.656689	1.878388	-1.274681
H	4.781213	0.628457	-0.672043
H	4.385611	0.786491	1.045426
H	4.88042	3.197422	-0.812962
H	6.114693	2.467032	0.189238
H	5.160484	4.488769	1.298258
