15

C	0.981887	-0.017102	-0.002926
C	2.434736	0.008787	0.006549
C	3.645441	0.038818	0.014508
C	5.100885	0.040207	0.011003
O	5.588526	1.283417	0.466684
C	6.921905	1.430348	0.51964
C	7.87069	0.544228	0.193309
H	0.573262	1.005273	-0.001221
H	0.582842	-0.540518	0.880114
H	0.599817	-0.527543	-0.901027
H	5.476424	-0.160981	-1.011539
H	5.481475	-0.774905	0.657934
H	7.173991	2.429764	0.887077
H	7.662469	-0.4608	-0.176112
H	8.915981	0.835988	0.300779
