14

C	2.777018	0.838301	2.032273
N	3.698691	1.524726	1.494044
O	3.964075	1.134229	0.214502
C	4.986288	1.936586	-0.34534
C	4.512547	3.350855	-0.645518
C	3.399083	3.408377	-1.655376
O	3.302896	4.245026	-2.513147
H	2.51223	1.088177	3.062503
H	2.260002	0.024992	1.503537
H	5.281544	1.407257	-1.263906
H	5.85606	1.96105	0.332064
H	5.338849	3.989864	-0.99248
H	4.131633	3.781979	0.298405
H	2.631264	2.597303	-1.550002
