12

C	0.896321	-0.118732	-0.080488
C	2.10361	-0.049484	-0.022409
C	3.554676	0.060965	0.046211
C	4.030281	1.496137	0.097569
C	4.323116	2.158076	1.366897
O	5.356808	1.685443	0.525873
H	-0.174714	-0.186806	-0.133383
H	4.006098	-0.432868	-0.832131
H	3.939774	-0.471385	0.932036
H	3.722059	2.117519	-0.75586
H	4.178941	1.604313	2.304333
H	4.232811	3.248801	1.449984
