15

N	0.755442	1.617241	-1.162087
N	2.123794	1.426398	-1.224944
C	2.965967	1.909317	-0.273091
O	2.56167	2.547443	0.679052
C	4.433392	1.568968	-0.474391
C	5.316182	2.738927	-0.173873
C	6.31151	3.164781	-0.950553
H	0.571078	2.621679	-1.141729
H	0.424086	1.26864	-0.261297
H	2.4691	0.906662	-2.021412
H	4.629606	1.16733	-1.481102
H	4.648995	0.756961	0.245078
H	5.080641	3.259672	0.760984
H	6.55809	2.669198	-1.895647
H	6.921036	4.027834	-0.670158
