14

N	1.167142	-0.526393	-0.181206
C	2.523251	-0.610337	-0.178073
O	3.114377	-1.663389	-0.300641
C	3.243325	0.717635	-0.007691
C	4.757365	0.539445	-0.023034
C	5.477243	1.79634	0.128995
C	6.061741	2.849595	0.255944
H	0.678087	0.350456	-0.080592
H	0.634401	-1.378314	-0.296114
H	2.919273	1.185301	0.937675
H	2.928412	1.406883	-0.809747
H	5.055419	0.044805	-0.961796
H	5.049019	-0.162979	0.774602
H	6.584524	3.781141	0.368066
