18

C	2.54544	-0.99269	-0.335218
C	2.228278	0.427306	0.091459
N	3.411031	1.259263	0.041649
C	3.72995	1.898224	-1.204426
C	3.226755	2.692535	-0.041223
C	4.10895	3.546508	0.778271
C	3.771719	4.746453	1.25413
H	1.653295	-1.63332	-0.267131
H	3.33449	-1.419426	0.301415
H	2.902826	-1.018155	-1.376712
H	1.856249	0.438243	1.129281
H	1.410282	0.838688	-0.542624
H	3.034792	1.777574	-2.047743
H	4.788801	1.9352	-1.484109
H	2.192668	3.055029	-0.14366
H	5.100654	3.12695	0.982955
H	2.782832	5.176967	1.0651
H	4.469777	5.34282	1.846645
