12

N	1.022764	0.000526	0.081572
C	2.371702	-0.078542	-0.059302
O	2.974886	-1.119635	-0.208136
C	3.046454	1.219826	-0.024507
C	3.648619	2.273316	0.008346
C	4.377181	3.543434	0.002441
O	3.580319	4.661612	-0.271308
H	0.556015	0.87622	0.267669
H	0.496003	-0.863361	0.095119
H	5.232396	3.448545	-0.697045
H	4.81653	3.699514	1.001324
H	3.205521	4.552226	-1.151973
