14

C	1.072624	-0.106698	0.384659
C	2.539272	0.004545	-0.003789
O	2.763407	-0.513442	-1.313947
N	2.750811	-1.873805	-1.285841
C	2.88606	-2.386541	-2.438941
C	3.016607	1.387074	-0.00046
C	3.387891	2.538336	0.022152
H	0.910744	0.278693	1.401325
H	0.770532	-1.163049	0.351118
H	0.45085	0.468593	-0.315999
H	3.154656	-0.583756	0.701176
H	2.899607	-3.477918	-2.496586
H	2.991365	-1.778458	-3.348217
H	3.725193	3.558415	0.040619
