18

C	3.18293	-1.066839	-0.698787
C	2.629904	-0.11221	0.345818
C	3.122262	1.334626	0.199296
C	2.403556	2.257864	1.182726
C	4.608875	1.425114	0.391444
C	5.493252	1.827314	-0.522236
H	2.795301	-2.087049	-0.557017
H	4.282329	-1.113132	-0.660119
H	2.905822	-0.744506	-1.716003
H	2.888368	-0.469949	1.359651
H	1.526669	-0.110099	0.302592
H	2.890699	1.670147	-0.828722
H	2.611166	1.959255	2.224117
H	1.312157	2.219382	1.036405
H	2.729981	3.301905	1.06319
H	4.9697	1.130613	1.387583
H	5.176171	2.128442	-1.526322
H	6.563708	1.875154	-0.303546
