15

O	3.177425	3.086859	1.954079
C	2.509055	2.749802	1.012063
C	2.974331	1.83834	-0.087776
C	4.41078	1.362334	0.049473
C	5.452409	2.469999	-0.155104
C	5.376778	3.105007	-1.46558
C	5.284935	3.621962	-2.557953
H	1.451609	3.110231	0.905934
H	2.814419	2.365917	-1.047255
H	2.268707	0.987686	-0.114223
H	4.594462	0.554083	-0.675578
H	4.557518	0.937946	1.055089
H	6.463036	2.049726	-0.019362
H	5.327131	3.234227	0.629233
H	5.213545	4.084559	-3.524799
