12

C	1.415879	-0.204744	0.060912
C	0.417437	-1.332961	-0.001056
C	-0.895653	-1.079205	-0.035775
N	-1.358769	0.231205	-0.01582
C	-0.436465	1.254249	0.030571
N	0.824299	1.125441	0.06629
H	2.05984	-0.302403	0.957907
H	2.126376	-0.2657	-0.787851
H	0.769501	-2.36709	-0.0184
H	-1.65725	-1.860265	-0.081517
H	-2.345451	0.435661	-0.049703
H	-0.877074	2.262513	0.035483
