14

C	2.686211	-1.16612	0.294704
C	2.246365	0.086004	0.147176
N	3.022743	1.243675	0.087612
C	2.49783	2.509397	-0.066006
C	3.53148	3.411406	-0.088246
C	4.738066	2.666595	0.059325
C	4.393376	1.341039	0.164014
H	1.96738	-1.985161	0.325568
H	3.743915	-1.41889	0.388827
H	1.176351	0.293629	0.056916
H	1.422234	2.654125	-0.149306
H	3.435055	4.489697	-0.20059
H	5.75194	3.061642	0.085308
H	5.014704	0.458572	0.287529
