15

C	2.0978	0.012273	0.45877
C	2.105931	1.232921	-0.088335
O	3.131356	2.098031	-0.171422
C	4.364429	1.703862	0.377355
C	5.345467	2.832541	0.166265
C	6.706893	2.546225	0.725513
O	7.005854	1.526778	1.289644
H	1.171794	-0.563358	0.4418
H	2.971484	-0.445558	0.925255
H	1.21118	1.663112	-0.548632
H	4.729305	0.778673	-0.104529
H	4.259409	1.479924	1.454421
H	4.97107	3.765686	0.62406
H	5.451544	3.065665	-0.908381
H	7.458465	3.366455	0.583807
