15

C	4.456789	-0.867056	0.497967
O	3.284165	-0.102185	0.351198
C	3.398489	1.219531	0.278249
C	4.527525	1.956313	0.327613
C	4.557879	3.42506	0.237619
C	3.255287	4.183229	0.083147
O	5.617918	4.01656	0.287164
H	4.145011	-1.918001	0.537051
H	4.988748	-0.608116	1.429578
H	5.140127	-0.717858	-0.355766
H	2.412125	1.680245	0.164862
H	5.512392	1.498408	0.439864
H	2.580441	3.990338	0.932068
H	2.72819	3.882625	-0.836119
H	3.481634	5.255416	0.035694
