17

C	2.111516	-0.695081	-0.899223
C	2.224099	0.372447	0.178346
N	3.255822	1.353657	-0.071667
C	4.568108	1.046104	0.212533
O	4.890725	0.036229	0.812709
N	5.475602	1.977116	-0.234156
C	6.870332	1.86815	0.095642
H	1.312217	-1.413513	-0.659262
H	3.058393	-1.249441	-0.978666
H	1.882306	-0.253315	-1.882732
H	2.460422	-0.098887	1.143281
H	1.267417	0.905634	0.303701
H	3.079843	2.019498	-0.813886
H	5.127825	2.88227	-0.519976
H	7.0644	0.827237	0.385158
H	7.162392	2.514352	0.942815
H	7.502971	2.120193	-0.770188
