14

O	2.358854	-1.07705	-1.061886
C	2.146126	0.171421	-0.652651
O	1.351588	0.896921	-1.182445
C	2.951202	0.576702	0.580294
C	4.411598	0.189805	0.5224
C	5.040021	-0.64511	1.569085
N	4.667679	-1.234223	0.292628
H	3.099184	-1.465714	-0.535169
H	2.473783	0.081263	1.442536
H	2.832978	1.659167	0.717008
H	5.061475	0.896319	-0.007352
H	4.443718	-0.967097	2.429177
H	6.104826	-0.50468	1.781293
H	5.473749	-1.387154	-0.310909
