19

C	1.72513	-0.143706	-0.023876
C	0.817615	-1.248823	0.513232
C	-0.425479	-1.530637	-0.329074
C	-1.53765	-0.531873	-0.152821
C	-1.430615	0.760518	0.183162
C	-0.168657	1.564993	0.348892
C	0.994277	1.100268	-0.527855
H	2.343594	-0.542282	-0.847074
H	2.434194	0.141471	0.772644
H	1.409647	-2.173058	0.61669
H	0.483381	-0.992269	1.533196
H	-0.822379	-2.523182	-0.058559
H	-0.15291	-1.618709	-1.399013
H	-2.551328	-0.927588	-0.286978
H	-2.365641	1.315372	0.323584
H	0.137635	1.586564	1.412995
H	-0.40511	2.61348	0.102954
H	1.724384	1.919022	-0.638908
H	0.598162	0.913321	-1.540773
