17

C	0.83743	-0.445764	0.005451
C	2.308037	-0.02733	-0.056578
C	3.09528	-0.915299	-1.022321
C	2.420424	1.407712	-0.462647
C	2.949856	2.402189	0.265544
C	3.002931	3.777897	-0.243845
O	3.465562	4.714597	0.359664
H	0.273771	0.169154	0.722395
H	0.747087	-1.499446	0.311891
H	0.356004	-0.343393	-0.981247
H	2.744965	-0.13298	0.951762
H	2.69561	-0.833653	-2.046687
H	3.025901	-1.972043	-0.720423
H	4.158944	-0.635554	-1.050477
H	2.023494	1.651404	-1.460319
H	3.363033	2.23328	1.265753
H	2.56801	3.90728	-1.271537
