17

C	1.258536	0.118599	-1.077071
C	2.088406	0.325185	-0.054129
C	3.376018	1.105111	-0.056722
C	3.89161	1.489838	-1.45744
C	3.364382	2.884148	-1.654359
C	2.961717	3.421849	-0.499391
C	3.150646	2.472248	0.649518
H	0.326559	-0.436358	-0.941961
H	1.463943	0.498644	-2.081738
H	1.805727	-0.070926	0.930431
H	4.124416	0.511722	0.494005
H	3.578029	0.778427	-2.238001
H	4.997531	1.496164	-1.480762
H	3.361393	3.395444	-2.620614
H	2.574712	4.436611	-0.379018
H	4.030678	2.76558	1.252566
H	2.292746	2.45004	1.343195
