14

C	0.947476	0.197037	-0.267888
O	2.32673	0.173761	0.003273
C	2.992873	1.329287	-0.058039
N	4.254846	1.332477	-0.252728
O	4.719832	2.626035	-0.146118
C	3.610909	3.521655	-0.209772
C	2.414617	2.691312	0.229394
H	0.595246	-0.839162	-0.190378
H	0.735158	0.566022	-1.286577
H	0.389836	0.810879	0.460577
H	3.481361	3.866652	-1.252815
H	3.830462	4.389553	0.426778
H	1.498064	2.91978	-0.331693
H	2.18309	2.773932	1.306363
