13

C	0.90635	0.402605	0.333697
C	2.206322	0.115963	0.278946
C	3.261325	1.132649	-0.004102
O	2.778457	2.459851	-0.218613
C	3.4628	3.014504	0.902828
C	4.04998	1.645652	1.214369
O	4.780914	1.176038	2.025835
H	0.163635	-0.368323	0.551306
H	0.558594	1.421812	0.144897
H	2.576218	-0.899887	0.457784
H	3.93068	0.794549	-0.82125
H	4.20486	3.786933	0.630283
H	2.785195	3.418505	1.677049
