13

C	1.166815	0.043057	0.005186
C	2.648216	0.034228	-0.000486
N	3.468913	1.030652	0.003113
N	4.73619	0.500711	-0.003844
C	4.603343	-0.783362	-0.011732
C	5.64959	-1.83173	-0.024089
O	3.301367	-1.149991	-0.009733
H	0.780464	-0.983081	-0.00806
H	0.782764	0.582088	-0.872779
H	0.789042	0.556293	0.901257
H	5.189724	-2.827182	-0.002022
H	6.31193	-1.722543	0.846768
H	6.270612	-1.74452	-0.927548
