19

C	4.031252	-1.156398	1.394923
O	4.691859	-0.286093	0.532192
C	3.833623	0.483937	-0.253575
C	4.660026	1.368501	-1.170716
C	5.54478	0.554134	-2.099157
O	3.724929	2.167358	-1.853416
C	4.253869	3.271848	-2.517985
H	4.789928	-1.710111	1.966085
H	3.40172	-1.887008	0.847853
H	3.37832	-0.617552	2.111026
H	3.181234	1.131066	0.367218
H	3.166859	-0.15357	-0.872781
H	5.302132	2.006268	-0.526112
H	4.92025	-0.032294	-2.791926
H	6.157718	-0.13835	-1.50539
H	6.219662	1.190048	-2.691011
H	3.411062	3.8663	-2.899017
H	4.891839	2.994709	-3.379043
H	4.855617	3.913406	-1.842357
