18

C	1.004786	-0.109648	0.121386
C	2.526766	-0.032718	-0.027571
C	3.00273	-0.726455	-1.307265
C	2.991633	1.35478	0.030619
C	3.36493	2.507767	0.07434
C	3.823572	3.895778	0.099007
N	2.800321	4.816109	-0.370022
H	0.670044	0.366464	1.054316
H	0.671693	-1.158986	0.128183
H	0.507568	0.403506	-0.716409
H	2.9789	-0.560385	0.832825
H	2.575542	-0.233758	-2.194491
H	2.684699	-1.780436	-1.315262
H	4.098519	-0.693702	-1.396356
H	4.7823	3.942165	-0.462844
H	4.078881	4.159739	1.140651
H	2.547039	4.589417	-1.329932
H	3.172628	5.763502	-0.383995
