17

C	1.998205	-0.015275	2.453701
N	3.101548	-0.057455	1.816202
N	3.877339	1.019748	1.736739
C	4.852781	1.039568	0.681273
C	5.967662	2.090572	0.804554
C	6.961787	1.023061	0.30354
C	5.930621	-0.056113	0.691133
H	1.410418	-0.933614	2.535251
H	1.614598	0.90278	2.935611
H	3.449572	1.92366	1.95534
H	4.377164	1.095348	-0.319174
H	6.140159	2.330957	1.865143
H	5.867024	3.027149	0.235292
H	7.111136	1.081006	-0.785572
H	7.950145	0.984065	0.783921
H	5.789641	-0.919498	0.025792
H	6.08217	-0.419081	1.718282
