17

C	1.036236	-0.394333	0.13236
N	2.401268	-0.126576	-0.261982
C	2.942228	-1.090766	-1.19419
N	2.578281	1.168746	-0.687577
C	3.369816	2.085651	-0.044305
C	4.05978	1.594099	1.204145
O	3.485465	3.211789	-0.47921
H	0.725091	0.332211	0.896037
H	0.968013	-1.403434	0.56548
H	0.320916	-0.336481	-0.717198
H	2.878672	-2.100044	-0.760532
H	3.999875	-0.862235	-1.386247
H	2.405276	-1.100617	-2.167644
H	2.113368	1.497421	-1.536971
H	3.32661	1.256164	1.950546
H	4.654812	2.421329	1.608205
H	4.707073	0.733206	0.983415
