13

O	3.011807	-0.93516	-0.621331
C	2.369217	0.094038	0.086308
C	3.259857	1.299803	0.10921
C	3.299861	2.220881	-1.070924
C	2.66056	2.671842	0.209712
H	2.473595	-1.729243	-0.555734
H	2.140879	-0.208223	1.129356
H	1.401381	0.374324	-0.38151
H	4.208853	1.135072	0.630756
H	2.647436	1.984336	-1.916644
H	4.261442	2.654361	-1.356483
H	3.176792	3.418161	0.818857
H	1.56917	2.755498	0.237488
