13

O	1.274358	0.139516	0.51977
C	2.296985	-0.019581	-0.074027
O	2.525383	-1.105585	-0.859828
C	3.895209	-1.225444	-1.217959
C	4.540819	0.105693	-0.892732
C	3.896309	1.299184	-1.505269
C	3.502295	0.864225	-0.114778
H	4.347668	-2.041445	-0.63031
H	3.953272	-1.488493	-2.285635
H	5.597666	0.127374	-0.61759
H	4.486521	2.215956	-1.573252
H	3.177586	1.157877	-2.319433
H	3.700368	1.501254	0.748235
