17

O	2.582622	-0.830704	0.914215
C	2.275346	-0.013777	-0.193879
C	2.902053	1.34407	0.082526
O	2.402519	1.844933	1.296419
C	4.434555	1.274896	0.088571
C	5.065605	2.589952	0.408959
C	5.998742	3.198703	-0.32408
H	2.061635	-1.636724	0.86989
H	1.182826	0.121825	-0.302708
H	2.668755	-0.432728	-1.140609
H	2.581223	2.043895	-0.708382
H	2.453664	1.104406	1.916716
H	4.793113	0.900743	-0.885083
H	4.722498	0.522877	0.845722
H	4.692252	3.069923	1.320966
H	6.385154	2.751543	-1.246476
H	6.413939	4.166478	-0.030568
