15

N	1.226133	0.212204	0.07216
C	2.478233	0.295774	-0.132952
N	3.26234	1.254643	0.471814
C	2.70047	2.531201	0.879067
C	3.328305	3.543856	-0.102348
C	4.203454	2.648335	-0.982107
O	4.464876	1.504059	-0.180972
H	0.846713	-0.605201	-0.403919
H	3.096532	-0.385405	-0.744724
H	2.974748	2.752262	1.921173
H	1.605771	2.450609	0.810001
H	2.574765	4.085842	-0.690595
H	3.935412	4.284208	0.437343
H	3.671715	2.350618	-1.906629
H	5.173773	3.085234	-1.254202
