12

O	1.056366	-0.155992	0.035093
C	2.245571	0.033737	0.018699
C	2.949409	1.329903	-0.21855
C	4.266871	1.170422	-0.008536
C	4.607958	-0.257964	0.286754
N	4.314799	-1.212062	-0.773545
C	3.325536	-1.002191	0.277085
H	2.428443	2.238671	-0.522572
H	5.025165	1.953337	-0.089108
H	5.445921	-0.505456	0.945384
H	4.055098	-0.728972	-1.63595
H	3.088893	-1.859882	0.913175
