20

C	1.305865	1.138991	-1.381914
N	2.603885	1.666954	-1.039512
C	3.301618	0.933071	-0.009266
C	4.779523	1.358801	0.052696
C	5.410324	0.893569	1.353065
C	5.535657	0.818331	-1.157668
O	4.849765	2.778092	0.062622
H	0.817056	1.790269	-2.123056
H	0.613239	1.025726	-0.519068
H	1.412588	0.144128	-1.844746
H	2.511195	2.631834	-0.730558
H	3.246372	-0.144839	-0.240125
H	2.842121	1.062595	0.996004
H	4.913204	1.376608	2.207304
H	6.475034	1.168504	1.37889
H	5.323343	-0.197747	1.465303
H	5.007912	1.102979	-2.081901
H	5.605868	-0.279732	-1.13004
H	6.553981	1.233566	-1.180632
H	4.664093	3.066688	-0.838596
