20

C	0.908722	-0.164383	-0.380725
C	2.425183	-0.16853	-0.475319
C	3.089379	0.694445	0.58404
N	4.529334	0.63653	0.48638
C	5.176091	1.565177	-0.411156
C	5.298074	1.710529	1.063769
C	6.543688	1.35634	1.824999
H	0.45387	-0.796714	-1.157547
H	0.49892	0.85184	-0.499611
H	0.566314	-0.543045	0.596038
H	2.742964	0.187831	-1.470979
H	2.817708	-1.194571	-0.381905
H	2.802152	0.336722	1.588507
H	2.706788	1.739118	0.503981
H	4.549529	2.29882	-0.937598
H	6.012552	1.171874	-1.000475
H	4.71478	2.542499	1.489708
H	7.071815	0.528842	1.329541
H	6.298285	1.035468	2.84965
H	7.225133	2.219207	1.893182
