20

C	0.841069	0.016518	-0.187725
C	2.350765	-0.137153	-0.102004
O	2.857463	-0.841936	-1.219504
C	3.061566	1.205137	-0.049101
C	4.582563	1.100646	-0.105934
C	5.192035	0.163143	0.927604
N	4.738607	0.47976	2.270701
H	0.448318	0.579061	0.673236
H	0.341919	-0.966431	-0.196881
H	0.562717	0.548347	-1.111252
H	2.595231	-0.67801	0.835394
H	2.435988	-1.70641	-1.243115
H	2.753081	1.707868	0.880909
H	2.711463	1.828422	-0.890358
H	5.013397	2.111583	0.01401
H	4.884934	0.750555	-1.105099
H	6.296582	0.179122	0.804541
H	4.877602	-0.867094	0.689818
H	5.066136	1.405476	2.543513
H	5.129856	-0.171296	2.947316
