19

C	0.96929	-0.18349	-0.048878
C	2.483816	-0.07095	0.019886
C	2.983203	1.366409	-0.016818
C	4.505222	1.479743	0.064739
C	4.998854	2.910552	0.056416
N	4.912132	3.527957	-1.164579
N	5.469181	3.550766	1.057593
H	0.638408	-1.232404	-0.020374
H	0.576544	0.263677	-0.976645
H	0.491138	0.339933	0.794671
H	2.939329	-0.633751	-0.814546
H	2.852625	-0.556487	0.941019
H	2.536892	1.936351	0.817262
H	2.615644	1.85415	-0.938115
H	4.962947	0.932294	-0.778405
H	4.863017	0.995542	0.9869
H	4.312289	3.148091	-1.881086
H	5.064593	4.528075	-1.174803
H	5.511334	2.940062	1.873034
