14

C	1.098101	0.039777	0.119357
C	2.572793	0.018172	-0.1378
N	3.154498	1.135251	-0.369618
O	4.51952	1.107483	-0.515132
C	5.135092	-0.008962	0.066824
O	4.638215	-1.201787	-0.432158
C	3.271727	-1.312576	-0.143341
H	0.651444	-0.956155	-0.01593
H	0.599277	0.744701	-0.560107
H	0.88585	0.36345	1.150409
H	6.198276	0.06017	-0.196287
H	4.997985	0.049613	1.16896
H	3.100909	-1.857258	0.809099
H	2.810103	-1.92184	-0.940186
