13

N	1.000238	0.092428	0.608629
N	2.3499	0.031676	0.520386
C	2.967325	1.08805	0.114507
C	2.241943	2.378452	-0.221373
O	1.48949	2.861529	0.85517
C	4.391918	1.046759	0.023654
C	5.600097	1.084195	-0.085147
H	0.516802	0.600643	-0.137786
H	0.609029	-0.834738	0.733139
H	1.614293	2.204577	-1.127336
H	2.971734	3.150594	-0.500307
H	1.04251	2.109142	1.267615
H	6.670531	1.100063	-0.177932
