17

C	1.102097	0.12043	-0.585099
N	2.534713	0.021322	-0.489635
C	3.142505	0.989167	0.389043
C	4.639841	0.844911	0.402922
C	5.462661	1.523337	-0.657813
C	5.511576	2.007785	0.761961
H	0.714853	-0.62591	-1.295463
H	0.725652	1.119554	-0.901978
H	0.643324	-0.096124	0.39439
H	2.963065	0.083734	-1.410383
H	2.745192	0.832031	1.409291
H	2.885663	2.044582	0.127286
H	4.981373	-0.146405	0.718826
H	4.93815	2.14831	-1.388158
H	6.333028	0.999344	-1.061259
H	6.415393	1.817474	1.346548
H	5.024925	2.960029	0.993979
