15

C	3.666283	4.189057	2.301541
C	3.794061	3.319865	1.299572
O	4.372956	2.108371	1.45169
C	4.741275	1.430736	0.289312
C	6.172863	1.624893	-0.234651
O	6.416928	0.222546	-0.173743
C	5.195082	-0.007999	0.523176
H	3.151902	5.135419	2.135133
H	4.059705	3.964401	3.29503
H	3.409573	3.533133	0.291872
H	3.965594	1.538607	-0.490207
H	6.799301	2.203892	0.469231
H	6.292521	2.033363	-1.25284
H	4.590558	-0.811425	0.070451
H	5.343028	-0.220791	1.597894
