14

C	1.059857	-0.03663	-0.002114
C	2.544019	0.027217	-0.002499
N	3.28892	-1.015097	0.032104
N	4.602557	-0.633438	0.140033
C	4.735583	0.759863	-0.281276
C	3.351516	1.304391	0.066975
H	0.726924	-1.082097	-0.038205
H	0.634863	0.505078	-0.863519
H	0.642808	0.433677	0.905454
H	5.216692	-1.304482	-0.308567
H	4.914369	0.844345	-1.37287
H	5.559561	1.263643	0.243942
H	2.996837	2.094847	-0.610744
H	3.314184	1.710002	1.095975
