19

C	0.947741	-0.130619	-0.05398
C	2.445053	0.146183	-0.130806
N	3.082071	-0.385608	-1.333258
C	2.821373	1.609879	0.003636
C	1.948341	2.617724	-0.083029
C	4.293028	1.84826	0.236262
N	4.678699	3.23685	0.096273
H	0.503236	0.252948	0.877453
H	0.761319	-1.215311	-0.098165
H	0.415398	0.331536	-0.9015
H	2.924515	-0.372596	0.722495
H	2.64665	0.029924	-2.156368
H	2.929385	-1.390437	-1.399415
H	0.880876	2.453696	-0.245009
H	2.299872	3.646207	0.029394
H	4.838986	1.142249	-0.421382
H	4.519413	1.5279	1.270746
H	4.621498	3.514265	-0.882337
H	5.647395	3.36547	0.376812
