14

C	0.873716	-1.09558	0.913415
C	1.148457	-0.406401	-0.374628
C	0.84366	1.063672	-0.488117
O	-0.262858	1.446456	0.310697
N	-1.451813	0.785141	0.065123
C	-1.351509	-0.461883	-0.199199
C	-0.099174	-1.240392	-0.245479
H	1.464833	-1.97802	1.16849
H	0.550011	-0.488135	1.762539
H	1.952357	-0.780412	-1.017484
H	1.673975	1.689584	-0.129625
H	0.644097	1.319247	-1.547348
H	-2.309486	-0.961911	-0.379443
H	-0.152245	-2.212905	-0.740303
