16

C	0.99429	0.052884	-0.00509
C	2.518288	-0.006863	-0.004109
C	3.144469	1.292887	0.446089
C	3.790975	1.161192	1.613458
C	3.811478	-0.26239	2.053551
N	4.477385	-1.199629	1.149514
C	3.051238	-1.015334	1.00972
H	0.562425	-0.915631	-0.30358
H	0.624173	0.818283	-0.703837
H	0.617197	0.30143	0.999136
H	2.861915	-0.270861	-1.022958
H	3.063853	2.216968	-0.132716
H	4.287109	1.966923	2.159238
H	3.828293	-0.525676	3.116243
H	4.988016	-0.685723	0.429536
H	2.435025	-1.89148	1.242835
