14

N	0.987243	0.043741	0.023264
C	2.421028	0.129979	0.00795
C	3.04838	1.208536	0.882554
C	4.403641	0.589994	1.201115
O	4.173894	-0.81855	1.239979
C	3.036296	-1.132349	0.600322
O	2.60285	-2.243406	0.519304
H	0.716882	-0.924967	-0.148639
H	0.572687	0.611072	-0.709966
H	2.865548	0.197554	-1.012678
H	2.43469	1.307609	1.791332
H	3.129858	2.194808	0.404561
H	5.154006	0.803882	0.420001
H	4.818675	0.894116	2.17169
