17

N	2.705082	-0.83402	-0.938697
C	2.326683	0.109817	0.104595
C	3.336588	1.223594	0.19384
C	3.501093	2.158195	-0.992861
N	2.714165	1.99298	-2.172618
C	2.913952	2.650839	0.300684
O	3.658317	3.461898	1.138073
H	2.076866	-1.63494	-0.948349
H	3.637141	-1.202292	-0.755905
H	2.201006	-0.344752	1.109543
H	1.343117	0.530792	-0.162484
H	4.259601	0.990634	0.736993
H	4.53451	2.497173	-1.153041
H	1.798056	2.422187	-2.085732
H	2.584715	0.997599	-2.358791
H	1.826146	2.837929	0.298313
H	3.734402	4.325759	0.718756
