16

C	1.817102	-0.677469	0.391191
C	1.927221	0.166333	-0.870582
N	0.81743	-0.033164	-1.80851
C	2.034576	1.658139	-0.552937
C	2.3123	2.568494	-1.747491
O	1.731411	2.209496	-2.885347
O	2.992529	3.553916	-1.650569
H	2.693977	-0.538344	1.041706
H	1.742017	-1.748748	0.146189
H	0.921922	-0.395863	0.97154
H	2.843592	-0.129926	-1.412072
H	-0.077753	0.066136	-1.327697
H	0.833824	-0.966808	-2.214284
H	2.827797	1.848891	0.182444
H	1.089927	1.997524	-0.087429
H	1.238909	1.355333	-2.73236
