15

C	0.943335	0.087595	0.070068
C	2.238213	0.174843	-0.250957
C	3.043395	1.394395	-0.168815
N	4.322457	1.378538	-0.274102
C	4.767667	2.747101	-0.070827
C	3.500943	3.624071	-0.170351
N	2.465896	2.632467	0.080753
H	0.403332	-0.859139	-0.007603
H	0.381186	0.947447	0.446401
H	2.799926	-0.700437	-0.586854
H	5.228626	2.826636	0.931779
H	5.546841	3.027335	-0.797045
H	3.398488	4.071882	-1.177638
H	3.480145	4.441901	0.566354
H	1.54177	2.801843	-0.298333
