13

C	1.01944	0.100404	-0.055002
C	2.526549	0.079692	-0.035053
O	3.14555	-0.961756	-0.072835
C	3.263211	1.380353	0.033631
C	2.672324	2.583993	0.088864
C	4.760439	1.316784	0.043482
O	5.461871	2.295566	0.096379
H	0.644803	0.674511	-0.91683
H	0.623772	0.577071	0.855596
H	0.652595	-0.930903	-0.114929
H	1.587813	2.715771	0.086789
H	3.304243	3.476708	0.139018
H	5.183489	0.288316	-0.002079
