13

C	0.947195	0.062088	-0.063781
C	2.284712	0.092558	0.034033
C	3.174284	-1.114409	-0.039818
C	3.832121	-1.249548	-1.397985
O	3.806251	-2.253997	-2.053959
C	2.955034	1.404114	0.190735
O	4.152749	1.536423	0.245304
H	0.363785	0.987239	-0.013686
H	0.396338	-0.873735	-0.190243
H	2.631533	-2.04527	0.172922
H	3.992121	-0.989153	0.692364
H	4.361668	-0.329663	-1.753758
H	2.26533	2.284272	0.256603
