14

O	0.881255	0.129974	0.436672
C	2.195575	-0.093824	0.0493
C	3.161949	0.942413	0.641377
N	3.707458	-0.055324	1.566662
C	3.001299	-1.134199	0.902082
C	3.849234	-2.040466	0.059681
O	5.036149	-1.902835	-0.084611
H	0.32068	-0.542223	0.036002
H	2.285441	-0.241195	-1.044345
H	2.64113	1.782101	1.130512
H	3.877053	1.346632	-0.096436
H	4.718746	-0.171939	1.535925
H	2.345833	-1.748741	1.551107
H	3.291067	-2.865683	-0.458459
