17

C	1.188632	0.197947	0.496737
C	2.388037	-0.058893	-0.033127
C	2.892228	-1.428556	-0.454392
C	4.350759	-1.252391	-0.935537
C	4.668633	0.230143	-0.813884
C	3.89162	1.146377	-1.701124
C	3.457784	0.946632	-0.267637
H	0.901592	1.212646	0.784187
H	0.458285	-0.597591	0.66945
H	2.242054	-1.878061	-1.221487
H	2.850611	-2.106374	0.413695
H	5.045684	-1.846664	-0.32389
H	4.478266	-1.594259	-1.975577
H	5.673471	0.529651	-0.503781
H	4.328382	2.116469	-1.952617
H	3.275039	0.710683	-2.494594
H	3.544703	1.792423	0.419766
