17

N	1.191975	0.230053	-0.764487
C	2.642722	0.178476	-0.699301
C	3.126311	1.33556	0.176581
O	2.379336	1.348708	1.35705
C	4.586659	1.211987	0.508622
C	5.646907	1.592801	-0.451568
N	5.338789	2.439814	0.687309
H	0.790669	-0.652381	-1.067469
H	0.878601	0.945524	-1.417813
H	3.156194	0.203623	-1.680155
H	2.927761	-0.766961	-0.20737
H	3.002366	2.287172	-0.389201
H	1.506531	1.018673	1.077238
H	4.799098	0.372046	1.184951
H	5.377651	2.010595	-1.428848
H	6.569548	1.000877	-0.457678
H	6.033441	2.337512	1.424719
