17

C	1.849907	1.55031	1.919883
O	3.119895	1.660916	1.359164
C	3.14896	1.417039	-0.017151
C	4.565228	1.594144	-0.521256
C	5.075638	2.996907	-0.336412
C	5.784427	3.401146	0.874518
O	6.47568	3.17246	-0.33618
H	1.934061	1.762145	2.995407
H	1.425384	0.533102	1.795699
H	1.133628	2.271109	1.475885
H	2.462191	2.111617	-0.549089
H	2.792538	0.38975	-0.242282
H	4.600001	1.327588	-1.590807
H	5.235658	0.89906	0.008205
H	4.518971	3.772911	-0.885686
H	5.941146	2.659264	1.668073
H	5.739638	4.445052	1.212039
