17

C	2.266082	-0.719417	-0.987627
O	1.913478	0.442675	-0.289942
C	2.990494	1.260655	-0.018666
C	3.445289	2.289898	-1.048084
C	2.773039	2.396589	-2.391091
C	2.722699	2.706921	0.20414
O	3.31029	3.442035	1.218713
H	1.345685	-1.291536	-1.170345
H	2.963073	-1.351764	-0.403655
H	2.742281	-0.492056	-1.959487
H	3.784096	0.797651	0.592101
H	4.52655	2.482055	-1.046534
H	1.729098	2.05672	-2.323763
H	3.278249	1.776837	-3.148887
H	2.77017	3.436298	-2.754534
H	1.675579	2.999096	0.069987
H	4.235618	3.188235	1.289144
