17

C	2.534533	-1.025838	0.799709
C	2.018096	0.371193	0.585237
O	0.839738	0.636586	0.573107
C	3.069588	1.472475	0.333754
C	3.115063	1.699733	-1.174026
C	2.669408	2.74042	1.076137
O	4.36367	1.043473	0.706361
H	3.270758	-1.291776	0.027074
H	1.693773	-1.73015	0.806223
H	3.072463	-1.082418	1.759288
H	3.422658	0.779412	-1.692885
H	3.855978	2.480854	-1.399738
H	2.129018	2.007004	-1.547777
H	2.690667	2.577545	2.167263
H	1.645469	3.030842	0.807656
H	3.363399	3.557116	0.829341
H	4.443779	1.1216	1.662846
