18

C	0.950754	0.04398	-0.003899
C	2.48376	0.017067	0.001399
C	3.016136	0.108411	-1.425683
N	2.961995	-1.216617	0.656083
C	3.399041	-0.882911	2.009869
C	3.519822	0.61736	2.022104
C	3.014557	1.121862	0.896377
H	0.563213	-0.081225	1.017908
H	0.559987	-0.780117	-0.619976
H	0.565763	0.996208	-0.403161
H	4.117296	0.14507	-1.432029
H	2.641723	1.012334	-1.929452
H	2.688779	-0.764215	-2.013947
H	3.753647	-1.577569	0.132772
H	4.341867	-1.397017	2.266128
H	2.664056	-1.211891	2.772527
H	3.912946	1.190043	2.865564
H	2.920165	2.182728	0.650566
