17

O	0.771562	0.617187	0.627343
C	1.918567	0.31702	0.434312
C	3.005423	1.238824	-0.07184
C	2.504424	2.667273	-0.358447
C	3.250304	3.583088	0.626752
C	3.675148	2.652881	1.760957
C	4.093608	1.387002	1.018296
H	2.27591	-0.725655	0.650684
H	3.426986	0.73759	-0.960834
H	1.417872	2.697973	-0.1813
H	2.670663	2.959182	-1.405491
H	4.149906	4.006693	0.14932
H	2.638655	4.432106	0.967627
H	4.473431	3.066613	2.396165
H	2.813046	2.434425	2.41536
H	5.075733	1.537104	0.541675
H	4.184231	0.499343	1.666161
