14

C	2.400695	-0.420607	-1.705622
N	2.646826	0.191903	-0.430496
O	1.773761	-0.179163	0.565506
C	3.856846	0.754797	-0.098722
O	4.713907	0.932361	-0.945749
C	4.024936	1.15701	1.326785
C	5.143624	1.783018	1.698374
H	3.218717	-0.12672	-2.374425
H	1.441869	-0.074444	-2.124698
H	2.372992	-1.518965	-1.611147
H	1.070791	0.486066	0.55579
H	3.23373	0.918584	2.038898
H	5.917936	1.994131	0.954564
H	5.31099	2.091027	2.733002
