14

C	-0.00953	-0.137655	-0.10742
C	1.4587	-0.391238	-0.176894
C	2.02632	-1.565066	-0.490267
O	2.137885	0.746236	0.126169
C	3.532582	0.690105	0.113765
C	4.066827	2.006495	0.460254
N	4.517021	3.036375	0.729833
H	-0.28595	0.668338	-0.804713
H	-0.286001	0.200468	0.903263
H	-0.5822	-1.039638	-0.353925
H	1.389413	-2.418574	-0.719804
H	3.104104	-1.725431	-0.5345
H	3.919964	0.402755	-0.882724
H	3.917104	-0.051021	0.840922
