19

C	1.7116	-1.73565	-0.74795
C	2.842428	-0.935325	-0.122833
C	2.837553	0.519986	-0.553843
O	1.617308	1.098328	-0.168481
C	3.983664	1.308861	0.052601
O	3.82333	2.642648	-0.349521
C	4.726924	3.529624	0.233799
H	1.710164	-2.776397	-0.391693
H	1.797394	-1.754623	-1.846469
H	0.742159	-1.28201	-0.496755
H	3.819493	-1.377794	-0.383081
H	2.759224	-0.965709	0.977744
H	2.955565	0.566789	-1.659053
H	1.722519	2.048623	-0.307319
H	4.961215	0.904627	-0.281816
H	3.941733	1.227787	1.158977
H	4.506879	4.537583	-0.145365
H	5.775368	3.280641	-0.024858
H	4.642659	3.541671	1.339066
