14

C	1.076672	-0.369006	0.570072
C	2.164088	-0.15118	-0.468152
O	1.952073	-0.944313	-1.615555
C	2.213386	1.293341	-0.949918
C	3.346161	1.561212	-1.904798
O	4.052455	2.533746	-1.859029
H	1.241026	0.252805	1.462771
H	1.05275	-1.421538	0.894562
H	0.092517	-0.120374	0.143658
H	3.146165	-0.394663	-0.008566
H	2.021228	-1.87053	-1.362805
H	2.28648	2.002122	-0.112224
H	1.270025	1.493298	-1.491889
H	3.489535	0.77227	-2.686256
