13

C	0.937294	0.018486	-0.05826
C	2.422819	0.0485	-0.156377
C	3.205318	1.068381	0.234225
C	4.649208	1.056155	0.118856
N	5.333831	2.064412	0.509054
O	6.673249	1.880768	0.324457
H	0.596735	-0.83272	0.555839
H	0.475844	-0.114078	-1.051531
H	0.537216	0.942519	0.384286
H	2.904186	-0.840756	-0.585079
H	2.76609	1.974611	0.666542
H	5.153492	0.174013	-0.30763
H	7.058838	2.698688	0.655159
