14

C	0.81765	0.69131	0.849162
C	2.039334	0.307749	0.476845
C	3.123271	1.209922	-0.031386
N	2.840595	2.634702	-0.202792
C	3.539919	3.037671	1.020238
C	4.101977	1.621881	1.094355
O	4.937068	1.062479	1.730581
H	0.08604	-0.027642	1.224475
H	0.495928	1.736347	0.793447
H	2.32659	-0.746864	0.559136
H	3.624694	0.738621	-0.898579
H	1.864531	2.897269	-0.289371
H	4.283241	3.845927	0.906807
H	2.907572	3.263339	1.901332
