16

O	1.061431	-0.147443	-0.126654
C	2.424932	0.016417	-0.005073
C	3.3539	-0.562851	-1.086751
C	4.402974	-0.32114	0.014382
C	3.310683	-0.7435	1.025032
N	4.429324	1.147982	0.076807
C	2.985601	1.443093	0.116775
H	0.635876	0.291893	0.617931
H	3.467073	-0.007676	-2.029891
H	3.155245	-1.627407	-1.269284
H	5.398318	-0.782575	-0.015156
H	3.096607	-1.821793	1.029367
H	3.380132	-0.352912	2.05525
H	4.887293	1.456365	0.931113
H	2.65994	2.078755	-0.724684
H	2.661431	1.929191	1.055648
