16

C	0.983856	-0.105176	0.259841
C	2.410167	0.158559	-0.156153
C	3.215219	1.179183	0.663052
C	4.10351	-0.023626	1.01611
C	5.540651	0.007185	0.557388
O	3.295081	-0.902445	0.224121
H	0.604971	-1.012784	-0.233837
H	0.331531	0.737964	-0.018503
H	0.920658	-0.256731	1.348708
H	2.455651	0.330351	-1.248985
H	2.671628	1.633399	1.503449
H	3.712673	1.969309	0.082479
H	4.058662	-0.311171	2.084286
H	5.602552	0.309864	-0.499364
H	5.993614	-0.991558	0.653316
H	6.130446	0.713777	1.162392
