12

C	0.958322	0.01256	-0.008092
C	2.44345	0.086933	-0.000787
C	3.220964	1.192344	0.004722
S	4.919806	0.858019	0.012176
N	4.575294	-0.802291	0.00844
C	3.236215	-1.158085	0.000991
O	2.831222	-2.302883	-0.002084
H	0.494734	1.007863	-0.00612
H	0.601112	-0.550128	0.869057
H	0.609262	-0.542581	-0.893326
H	2.894291	2.233434	0.004907
H	5.312448	-1.497526	0.011726
