16

N	0.976959	0.049454	-0.006059
C	2.419682	0.057667	0.006978
C	3.021539	1.155344	0.880645
C	4.39812	0.582769	1.171811
O	4.210162	-0.823929	1.229461
C	3.040257	-1.17101	0.635791
C	2.580162	-2.423543	0.635137
H	0.634401	-0.771994	-0.500517
H	0.634033	0.852014	-0.530023
H	2.875222	0.146315	-1.007552
H	2.419582	1.229907	1.799853
H	3.055915	2.142531	0.397103
H	5.120549	0.823283	0.369343
H	4.826682	0.917274	2.1281
H	1.631134	-2.6647	0.156951
H	3.13779	-3.222921	1.124428
