18

C	2.683233	-1.061557	1.26426
C	3.251625	-0.424053	-0.001036
C	3.165936	1.069981	0.011474
C	4.202835	1.910171	-0.052792
C	4.120218	3.403764	-0.012082
C	4.860913	4.005727	1.178886
H	2.731382	-2.160708	1.217375
H	1.628709	-0.779408	1.414093
H	3.24084	-0.732742	2.154749
H	2.697867	-0.811696	-0.875617
H	4.300967	-0.732797	-0.140963
H	2.154505	1.493727	0.096867
H	5.214823	1.48593	-0.128109
H	3.062468	3.715172	0.003667
H	4.548496	3.815885	-0.944197
H	4.42952	3.653834	2.128843
H	4.813064	5.105825	1.168828
H	5.924529	3.717545	1.174665
