17

C	0.965017	-0.08274	0.037985
C	2.480743	0.028765	0.0931
C	3.029998	1.457926	0.053043
C	2.567675	2.292995	1.243451
C	4.551883	1.446255	-0.038682
H	0.643648	-1.134216	-0.006715
H	0.560139	0.425175	-0.852926
H	0.483281	0.367154	0.919677
H	2.915096	-0.534172	-0.751602
H	2.859118	-0.468429	1.005989
H	2.638208	1.934734	-0.866482
H	2.904255	1.839216	2.191489
H	1.472159	2.386158	1.287566
H	2.982847	3.311518	1.200006
H	4.994337	0.976756	0.85632
H	4.96089	2.465749	-0.113945
H	4.900558	0.878966	-0.916135
