17

O	2.164952	-0.330172	1.383748
C	2.514228	-0.033985	0.052356
C	2.997863	1.374126	-0.019202
C	4.149418	1.808689	-0.546388
C	4.306425	3.296719	-0.409698
C	2.891321	3.758291	-0.011792
C	2.204195	2.511115	0.569301
H	1.70764	-1.175847	1.394175
H	1.634723	-0.134354	-0.620524
H	3.29676	-0.715744	-0.336741
H	4.916567	1.159051	-0.977613
H	5.052798	3.528072	0.374491
H	4.670869	3.785245	-1.328873
H	2.351103	4.079548	-0.916825
H	2.896164	4.614119	0.679907
H	1.130702	2.453783	0.321272
H	2.265053	2.462464	1.671576
