21

C	0.926492	-0.287197	0.078988
C	2.460574	-0.321657	0.055564
C	2.966948	-0.969488	1.344816
N	2.97421	-1.106508	-1.067982
C	2.981743	1.117057	-0.085164
C	4.493175	1.285333	-0.080539
N	4.839987	2.681895	-0.283041
H	0.532194	0.179466	-0.838719
H	0.540654	0.285392	0.937622
H	0.515889	-1.30833	0.141567
H	2.682207	-0.373415	2.225044
H	4.060448	-1.078392	1.327883
H	2.533986	-1.975683	1.467709
H	2.595529	-0.742873	-1.942209
H	2.640929	-2.067296	-0.99828
H	2.552465	1.747362	0.711093
H	2.584479	1.527021	-1.034532
H	4.925803	0.581333	-0.819251
H	4.889036	0.978869	0.90206
H	4.566634	2.975031	-1.220237
H	5.849076	2.806742	-0.237891
