22

C	2.228218	-1.833148	0.119237
C	3.487285	-0.992228	0.264508
C	3.322667	0.436221	-0.238347
C	4.576477	1.284703	-0.084368
C	4.415649	2.707599	-0.592337
N	5.61022	3.488876	-0.377916
C	5.517765	4.850586	-0.836824
H	2.378068	-2.859424	0.48774
H	1.912118	-1.900716	-0.93441
H	1.389616	-1.39627	0.685064
H	4.320116	-1.472482	-0.279223
H	3.798866	-0.967116	1.323737
H	2.487111	0.917239	0.302182
H	3.017476	0.415303	-1.3007
H	5.411958	0.800097	-0.623623
H	4.882743	1.326013	0.97472
H	3.584634	3.193919	-0.048819
H	4.096516	2.682629	-1.661874
H	6.405647	3.025249	-0.81091
H	4.754387	5.392449	-0.253936
H	5.243379	4.961512	-1.910435
H	6.474854	5.371518	-0.678819
