15

C	1.112287	0.034724	0.05608
N	2.519341	0.018657	0.334595
N	3.110417	1.207207	0.600402
C	4.332338	1.182867	0.188014
C	4.724656	-0.095431	-0.443296
C	4.596696	-1.332491	0.4186
C	3.408104	-0.869659	-0.355574
H	0.676114	-0.957643	0.244302
H	0.881015	0.330714	-0.98728
H	0.637482	0.758549	0.730942
H	4.970879	2.059429	0.310176
H	5.403116	-0.109115	-1.30209
H	5.103326	-2.227673	0.05104
H	4.581215	-1.215521	1.506252
H	2.983863	-1.470023	-1.167203
