12

O	1.366469	0.002658	0.916695
C	2.388546	0.079588	0.27619
N	3.032627	1.237281	0.010436
C	2.670257	2.596913	0.3774
C	3.916382	3.036572	-0.39822
O	4.437086	4.078193	-0.637074
C	4.22886	1.571196	-0.747958
H	2.913051	-0.802978	-0.16636
H	2.690832	2.812182	1.460056
H	1.711096	2.953266	-0.037187
H	4.190451	1.344233	-1.828292
H	5.180583	1.197466	-0.330785
