12

C	0.977407	0.277587	0.187247
C	2.30066	0.132092	0.017041
C	2.948431	-1.239555	-0.045208
C	3.579629	-1.518248	-1.333123
N	4.074652	-1.743473	-2.35408
C	3.180866	1.252397	-0.097252
C	3.962263	2.174518	-0.200542
H	0.523127	1.268546	0.247667
H	0.321895	-0.593097	0.26981
H	2.197995	-2.020358	0.151334
H	3.720951	-1.32357	0.737973
H	4.650054	2.994762	-0.298158
