14

O	0.995808	2.027023	0.0366
N	2.273439	1.974859	-0.438733
C	3.012427	1.174835	0.214491
C	4.446338	0.983979	-0.160134
C	5.094802	2.034714	-1.067896
C	5.952654	2.34095	0.164457
O	5.31853	1.314576	0.928885
H	0.566011	2.665724	-0.541987
H	2.6226	0.612694	1.077787
H	4.596868	-0.066739	-0.477557
H	4.412802	2.827939	-1.397385
H	5.635918	1.625608	-1.930699
H	7.037417	2.164488	0.052316
H	5.806257	3.34181	0.609256
