14

C	5.349546	-1.885401	-0.523162
C	4.57681	-1.016101	-0.185604
C	3.657571	0.042344	0.220108
C	4.297471	1.414718	0.258397
C	4.399281	2.231925	-0.992535
C	3.443964	2.636853	0.093788
H	6.03611	-2.655133	-0.823146
H	3.242399	-0.203298	1.213378
H	2.796568	0.056412	-0.4715
H	5.136364	1.491711	0.958422
H	3.983715	1.80664	-1.910924
H	5.298613	2.833109	-1.148386
H	3.679451	3.51942	0.694772
H	2.373596	2.492611	-0.084449
