13

C	0.311936	1.412026	0.364196
C	-0.741742	0.790637	-0.483864
C	-1.370303	-0.428084	0.094965
C	-0.443393	-1.379006	0.254669
C	0.887698	-0.899784	-0.267567
N	0.67748	0.488655	-0.687987
H	0.624138	2.448843	0.195671
H	0.361052	1.075881	1.408907
H	-1.264622	1.374418	-1.251024
H	-2.426422	-0.504065	0.360229
H	-0.603237	-2.361873	0.703351
H	1.692695	-0.955578	0.486645
H	1.2261	-1.502371	-1.13035
