14

C	0.958973	-0.089158	0.001255
C	2.42949	0.084023	0.000339
C	3.243497	1.186366	-0.083239
N	2.877722	2.521365	-0.240326
C	4.589438	0.687127	-0.059541
C	4.483445	-0.667199	0.034769
O	3.195636	-1.042091	0.064971
H	0.458686	0.879815	0.140528
H	0.635885	-0.754812	0.81767
H	0.585603	-0.520197	-0.943856
H	3.483076	3.16111	0.26232
H	1.910962	2.707406	0.002593
H	5.505177	1.272028	-0.11499
H	5.222261	-1.463332	0.088597
