18

C	1.744413	-0.027311	-1.205077
C	2.52541	0.191652	0.082034
N	3.190198	1.472549	0.14035
C	4.486935	1.635195	-0.244463
O	5.196205	0.702747	-0.571656
C	4.977346	3.07467	-0.256135
C	6.486948	3.169521	-0.145193
H	1.258415	-1.015173	-1.203797
H	2.417745	0.019964	-2.074106
H	0.958623	0.733826	-1.336539
H	3.312349	-0.570421	0.178349
H	1.863628	0.094895	0.958686
H	2.638448	2.29698	0.336579
H	4.477375	3.649209	0.541975
H	4.634296	3.517594	-1.208909
H	6.835766	2.814047	0.836044
H	6.831794	4.205175	-0.277327
H	6.961436	2.535811	-0.907074
