17

C	1.26276	0.148881	-0.313726
N	2.644781	0.07549	0.103472
C	3.120359	-1.176372	0.478684
N	4.297602	-1.648401	0.52765
C	3.436713	1.22573	-0.036541
C	4.695978	1.320961	0.786592
C	3.046841	2.262612	-0.802749
H	0.790946	1.060486	0.083829
H	0.721518	-0.726533	0.070146
H	1.157187	0.156072	-1.412959
H	2.292566	-1.840402	0.778316
H	4.995614	-0.98988	0.183298
H	4.593923	0.812266	1.755357
H	4.92238	2.378903	0.973166
H	5.572268	0.89495	0.272469
H	2.153034	2.24501	-1.426039
H	3.644121	3.175058	-0.816853
