13

C	3.18805	-1.372395	-1.309527
C	2.770142	-0.813561	-0.169112
C	3.432725	0.294125	0.559092
O	2.959308	0.706585	1.5972
C	4.708307	0.913392	0.018018
C	4.712837	2.421306	0.151574
O	5.234404	3.150881	-0.645192
H	2.632954	-2.194273	-1.769429
H	4.091871	-1.041875	-1.828311
H	1.863123	-1.166925	0.331658
H	4.958557	0.648132	-1.016425
H	5.525577	0.54337	0.664717
H	4.194265	2.804008	1.064647
