20

C	1.331387	-0.436913	0.387551
C	2.815179	-0.155564	0.608258
N	3.668937	-1.16952	-0.019224
C	3.25872	1.24436	0.14526
C	2.391088	2.349107	0.7362
C	4.73579	1.50215	0.479177
O	5.629996	0.681111	-0.19901
H	0.683215	0.224621	0.979698
H	1.092266	-1.47372	0.673055
H	1.064987	-0.309795	-0.675651
H	3.019299	-0.208219	1.694908
H	3.434846	-1.252595	-1.009267
H	3.501317	-2.085175	0.393476
H	3.170951	1.274041	-0.959133
H	2.394077	2.30881	1.838743
H	1.345724	2.288372	0.401995
H	2.770349	3.339287	0.440573
H	4.847683	1.429787	1.587605
H	4.975608	2.548608	0.220244
H	5.25215	-0.217884	-0.119377
