15

C	0.993844	0.0016	0.073691
N	2.424252	0.01421	0.123638
C	3.118582	1.028375	0.899943
C	4.200222	-0.024317	1.252175
C	3.141217	-1.058756	0.793264
C	5.396358	0.032174	0.428618
N	6.360189	0.084725	-0.210703
H	0.644619	-0.860879	-0.515139
H	0.625876	0.91198	-0.424661
H	0.520474	-0.053891	1.081019
H	2.573187	1.345047	1.814769
H	3.441017	1.924892	0.346315
H	4.494721	-0.075533	2.310225
H	3.482319	-1.886593	0.150857
H	2.603565	-1.478254	1.670398
