15

C	0.984976	0.009918	0.547836
C	2.320866	0.055486	-0.131642
C	2.602168	0.977791	-1.259208
C	4.036249	1.286742	-1.625146
C	4.537698	-0.11517	-1.866313
N	3.661789	-1.034367	-1.762323
N	2.395581	-0.470442	-1.49607
H	0.948937	0.726721	1.382852
H	0.787069	-0.99604	0.947607
H	0.181265	0.256273	-0.160666
H	3.182962	-0.204538	0.497638
H	1.803349	1.633756	-1.618291
H	4.618475	1.798768	-0.839965
H	4.103958	1.908857	-2.534538
H	5.576949	-0.373195	-2.09599
