15

O	0.978575	0.262571	0.430805
C	2.178689	0.274876	0.436318
C	3.04298	1.362902	-0.186922
C	2.341097	2.729934	-0.26704
C	3.233924	3.629935	0.596953
C	3.987715	2.616645	1.448553
O	4.215723	1.526773	0.579899
H	2.782401	-0.543836	0.908717
H	3.344993	0.975982	-1.178352
H	1.319403	2.639113	0.131161
H	2.25653	3.090463	-1.300749
H	3.947279	4.185806	-0.030669
H	2.667339	4.358651	1.194118
H	4.960638	2.968979	1.819369
H	3.378285	2.305605	2.322649
