21

C	2.440155	-0.645283	0.321105
O	3.718123	-0.135659	0.115893
C	3.784959	1.259	0.160258
C	5.223266	1.723951	-0.069032
C	6.122992	1.137058	1.020338
C	5.694585	1.249482	-1.445709
C	5.249263	3.250823	-0.005663
H	2.498855	-1.742232	0.270802
H	1.721833	-0.29678	-0.448702
H	2.0326	-0.361061	1.312696
H	3.425789	1.634245	1.143718
H	3.121055	1.704573	-0.612725
H	5.807754	1.478393	2.019932
H	7.169811	1.447285	0.873818
H	6.078326	0.038319	1.008016
H	5.068714	1.676089	-2.246223
H	5.636051	0.153796	-1.517536
H	6.735498	1.558227	-1.631206
H	4.603838	3.698124	-0.778825
H	6.271707	3.626656	-0.167388
H	4.909838	3.621053	0.975422
