18

O	0.902705	2.244002	-0.548142
C	2.29576	2.333144	-0.682558
C	2.921809	1.335637	0.269206
N	4.353423	1.361486	0.198241
C	5.095835	2.478526	0.78011
C	6.194713	1.488051	1.19803
C	5.127018	0.403287	0.980471
H	0.497517	2.871041	-1.153164
H	2.66942	3.350358	-0.439493
H	2.641771	2.100778	-1.709636
H	2.568191	0.32711	-0.002704
H	2.541367	1.54087	1.298017
H	4.583872	2.926734	1.659677
H	5.364757	3.291299	0.08383
H	7.011292	1.429647	0.464896
H	6.615182	1.592182	2.207052
H	5.416251	-0.520099	0.449612
H	4.630018	0.117487	1.932496
