13

C	1.04519	-1.200101	-0.218726
S	2.354122	-0.045763	0.055015
O	2.947818	-0.27795	1.352719
O	3.182628	0.069473	-1.130428
O	1.396493	1.296276	0.146822
C	1.96364	2.511098	-0.160958
C	1.420633	3.642427	0.272096
H	0.554529	-0.953827	-1.167592
H	0.35034	-1.136655	0.627507
H	1.516271	-2.190637	-0.262405
H	2.850705	2.454296	-0.800366
H	0.532626	3.639108	0.907465
H	1.860716	4.595175	-0.0229
