18

C	1.35321	-0.267041	0.229607
N	2.765862	-0.088535	0.007592
C	3.188016	1.291889	-0.058623
C	4.714326	1.39943	-0.060698
C	5.300383	1.085554	1.314332
N	5.244512	0.557633	-1.128991
H	1.097705	-1.337424	0.201258
H	0.700866	0.257083	-0.503414
H	1.077055	0.105677	1.230044
H	3.035797	-0.540573	-0.863837
H	2.788963	1.82428	0.822165
H	2.78884	1.817891	-0.954146
H	4.957958	2.444187	-0.321889
H	4.969428	0.08515	1.635414
H	4.969346	1.810044	2.075596
H	6.401807	1.101038	1.286194
H	5.277117	-0.407698	-0.800108
H	6.210188	0.809786	-1.327286
