13

O	1.151181	-0.047787	0.505207
C	2.29655	0.018234	0.158083
C	3.176498	1.240435	0.027921
C	4.315076	0.807904	-0.904616
C	4.530266	-0.682913	-0.61136
C	3.159929	-1.208221	-0.249793
O	2.764551	-2.33985	-0.257734
H	3.561452	1.469965	1.038873
H	2.603486	2.117934	-0.302581
H	4.000809	0.934921	-1.953509
H	5.22708	1.405459	-0.770304
H	4.983661	-1.264299	-1.426545
H	5.173169	-0.819223	0.278387
