15

C	0.962865	-0.056322	-0.008815
C	2.437183	0.090285	0.001299
C	3.272326	1.170822	0.008609
C	4.61519	0.663954	0.01536
C	5.881162	1.460249	0.026191
C	4.475817	-0.694227	0.011215
O	3.169705	-1.044359	0.0031
H	0.486725	0.932372	-0.00294
H	0.609453	-0.616714	0.871907
H	0.619625	-0.600847	-0.90349
H	2.969763	2.216692	0.009236
H	5.66412	2.537587	0.004636
H	6.514903	1.233351	-0.845751
H	6.481386	1.262624	0.928652
H	5.191907	-1.512866	0.013281
