14

C	0.812217	-0.60574	0.126928
C	2.14132	-0.049578	-0.311574
N	3.17845	-0.728765	-0.618865
N	2.24126	1.324964	-0.389019
C	1.28284	2.275501	-0.118248
C	1.449255	3.602471	-0.217788
H	0.007171	-0.305842	-0.562573
H	0.540693	-0.248054	1.132301
H	0.85646	-1.702074	0.151135
H	2.991709	-1.726259	-0.525873
H	3.156891	1.638467	-0.695495
H	0.319117	1.872296	0.202129
H	2.397072	4.045684	-0.535472
H	0.624893	4.27393	0.021476
