18

C	1.658046	-0.186064	1.057417
C	2.127204	0.308893	-0.302434
N	2.897301	1.53647	-0.219837
C	2.21566	2.811783	-0.263799
C	1.795816	3.236587	-1.663473
C	4.243896	1.455782	-0.056894
O	4.880844	0.427801	0.002611
H	1.060302	-1.104327	0.95182
H	1.035822	0.565023	1.570139
H	2.524329	-0.412395	1.696195
H	1.270354	0.479211	-0.97415
H	2.771076	-0.448826	-0.773135
H	2.88902	3.569438	0.169733
H	1.336802	2.769731	0.403163
H	2.674657	3.344172	-2.317
H	1.266735	4.201428	-1.633505
H	1.119902	2.500133	-2.125362
H	4.718095	2.466169	0.017902
