15

C	1.597526	-0.288807	-1.176124
C	2.239252	0.14725	-0.090526
C	3.357324	1.118647	-0.068805
C	3.710284	1.980309	-1.233558
C	3.048608	2.613958	-0.032745
C	3.780469	3.487595	0.841901
C	4.397957	4.223932	1.581454
H	0.763251	-0.990422	-1.096296
H	1.881041	0.031608	-2.182986
H	1.925993	-0.219912	0.894493
H	4.190895	0.835378	0.583292
H	3.109474	1.908528	-2.143276
H	4.765387	2.206771	-1.401207
H	1.989851	2.867878	-0.157022
H	4.943238	4.877746	2.236407
