12

O	1.6136	-0.286096	1.420567
C	2.370246	-0.058094	0.260249
C	2.89395	1.337073	0.290626
C	4.164536	1.667025	0.008298
C	4.664431	2.998295	-0.020242
C	5.119324	4.123902	-0.051905
H	1.178577	-1.139561	1.334493
H	1.74728	-0.168935	-0.654416
H	3.214514	-0.769926	0.157148
H	2.165505	2.115637	0.541899
H	4.887694	0.873924	-0.223125
H	5.518412	5.120976	-0.076702
