18

C	1.071762	0.158244	0.226586
C	2.52618	-0.050294	-0.188506
N	2.678912	-0.541441	-1.555901
C	3.319457	1.240169	-0.070269
O	2.990137	2.171136	-1.053065
C	3.650165	1.805113	1.266888
C	4.739717	1.212719	0.404205
H	0.987798	0.458062	1.282571
H	0.483589	-0.761823	0.081596
H	0.625642	0.959378	-0.384412
H	2.993175	-0.789808	0.483804
H	2.020886	-0.043656	-2.155843
H	2.406823	-1.52046	-1.610709
H	3.368055	1.826561	-1.872154
H	3.331176	1.257814	2.158417
H	3.612411	2.893768	1.354202
H	5.429408	1.911945	-0.0761
H	5.179517	0.254034	0.69238
