13

C	1.03103	-0.0867	-0.006752
C	2.498144	0.103351	0.001099
C	3.317566	1.189437	0.003924
C	4.671764	0.708783	0.011238
C	4.558136	-0.64773	0.011583
O	5.476555	-1.61273	0.016923
O	3.271334	-1.032902	0.005599
H	0.533932	0.891928	-0.004179
H	0.6865	-0.648272	0.877648
H	0.694384	-0.639343	-0.899847
H	2.993028	2.228272	0.001403
H	5.595435	1.279639	0.015599
H	5.023752	-2.464572	0.015513
