13

C	0.958516	0.059021	0.021731
C	2.169617	0.008847	-0.004691
C	3.590612	-0.060027	-0.03554
C	4.38016	-1.149319	-0.049166
C	5.80862	-0.690824	0.011103
C	5.64149	0.812588	-0.260276
O	4.265204	1.122143	-0.028301
H	-0.114871	0.106542	0.045918
H	4.030675	-2.179105	-0.027379
H	6.251474	-0.898028	1.003646
H	6.460339	-1.173974	-0.734153
H	5.873436	1.053907	-1.312671
H	6.252108	1.45769	0.38651
