20

C	3.614882	1.762611	-3.623831
C	4.736861	1.702822	-2.605132
N	4.217106	1.822041	-1.256192
C	5.17577	1.963164	-0.16291
C	6.335845	0.976341	-0.157027
C	5.642056	3.422734	-0.140019
O	4.549654	4.276086	-0.256295
H	4.006185	1.687245	-4.649388
H	3.05506	2.70586	-3.531963
H	2.90182	0.933804	-3.479391
H	5.433797	2.539467	-2.782004
H	5.328802	0.776528	-2.760928
H	3.558174	1.072808	-1.062752
H	4.584124	1.816016	0.757426
H	6.997374	1.118009	-1.025686
H	5.975781	-0.064556	-0.171423
H	6.946685	1.107176	0.749838
H	6.38652	3.584252	-0.952315
H	6.171562	3.624112	0.807489
H	3.916761	3.748939	-0.778896
