14

C	1.058982	0.020528	0.029291
C	2.559959	0.038444	0.075789
C	3.232306	-1.270284	0.052515
C	4.413513	-1.609986	0.595948
N	3.127755	1.195828	0.101181
N	4.460838	1.324211	0.163014
H	0.67781	1.049418	0.017385
H	0.635488	-0.504725	0.901942
H	0.692961	-0.504633	-0.869539
H	2.661341	-2.060368	-0.45272
H	5.01558	-0.910576	1.18123
H	4.783974	-2.635494	0.516819
H	4.751553	2.230037	-0.186963
H	5.01918	0.553138	-0.215032
