19

C	3.027455	-1.115417	-0.325101
C	2.370263	-0.004618	0.475546
C	3.039407	1.360579	0.304574
C	2.269919	2.466199	1.021652
N	4.425216	1.309462	0.725549
C	5.460441	1.889988	0.046278
N	6.67209	2.059086	0.399213
H	2.528407	-2.081369	-0.156873
H	4.087072	-1.225994	-0.050135
H	2.989187	-0.90232	-1.405857
H	2.36853	-0.260266	1.551983
H	1.308521	0.092453	0.193449
H	3.060142	1.593605	-0.774969
H	2.236601	2.27471	2.107076
H	1.232025	2.53039	0.660237
H	2.752428	3.442465	0.864987
H	4.596348	1.040479	1.68927
H	5.159919	2.22773	-0.961037
H	6.833442	1.709198	1.349856
