11

C	1.221928	-0.233464	-0.703859
N	2.447275	-0.165368	-0.380655
O	2.911184	1.115914	-0.372635
C	4.277702	1.120183	-0.004573
C	4.770004	2.490112	-0.005575
C	5.207854	3.617719	0.002381
H	0.774917	-1.230353	-0.733472
H	0.623836	0.656293	-0.94624
H	4.864442	0.507111	-0.712671
H	4.40278	0.67408	0.998978
H	5.594807	4.620243	0.00861
