17

C	0.9599	0.033928	0.070086
C	2.470392	-0.006808	-0.124691
O	2.920899	-1.25092	-0.59092
C	2.643698	-1.50547	-1.948454
C	3.191701	-0.385599	-2.818135
C	2.663082	0.936884	-2.285891
O	2.939965	1.056364	-0.910007
H	0.674022	0.998881	0.512062
H	0.655772	-0.774565	0.749645
H	0.404112	-0.084075	-0.870417
H	2.962589	0.123603	0.851105
H	3.112656	-2.471892	-2.184273
H	1.554172	-1.622379	-2.120992
H	4.291958	-0.385211	-2.752755
H	2.90768	-0.529063	-3.873049
H	3.145666	1.795501	-2.775079
H	1.574696	1.018882	-2.484844
