14

O	1.997739	0.044936	0.983124
C	2.707492	-0.193987	-0.181284
C	1.767376	-0.522201	-1.31664
O	0.577265	-0.596816	-1.138799
C	3.569276	0.990707	-0.568738
C	4.995652	1.062454	-0.194962
N	4.601932	0.714858	-1.55086
H	1.069085	-0.136917	0.758772
H	3.385819	-1.071983	-0.088663
H	2.236282	-0.685714	-2.314921
H	3.01122	1.934802	-0.623174
H	5.440279	0.250099	0.391323
H	5.423439	2.051894	0.000771
H	4.729244	1.497807	-2.188818
