13

C	3.077133	-1.1239	0.51277
O	2.336134	0.046987	0.309618
C	3.049433	1.180153	0.184842
C	2.507899	2.435851	-0.037197
N	3.57193	3.276505	-0.098595
N	4.739035	2.679744	0.063581
C	4.44946	1.393785	0.240217
H	2.359911	-1.951298	0.588678
H	3.668791	-1.078071	1.44556
H	3.766086	-1.323879	-0.328734
H	1.478628	2.764096	-0.151943
H	3.544987	4.274996	-0.25721
H	5.248153	0.671551	0.400152
