18

N	3.009458	-1.017463	-0.643177
C	2.510126	0.053384	0.196419
C	3.297701	1.333363	-0.025821
C	3.29542	1.847915	-1.479373
C	3.362021	3.339404	-1.315041
C	3.102717	3.712083	-0.057574
C	2.819293	2.527897	0.823553
H	2.450524	-1.85942	-0.526896
H	3.958065	-1.265739	-0.366384
H	2.50881	-0.176568	1.285505
H	1.455379	0.242722	-0.073276
H	4.351417	1.140783	0.251035
H	2.36739	1.55152	-2.005744
H	4.117975	1.427532	-2.078734
H	3.555631	4.027112	-2.142666
H	3.05097	4.746041	0.29394
H	3.319506	2.579793	1.804547
H	1.734226	2.461459	1.037608
