19

C	0.994578	-0.017473	-0.006264
C	2.519019	-0.004791	-0.0161
C	3.076644	-1.229048	-0.777241
C	3.332385	-0.69387	-2.15605
C	3.326646	0.64605	-2.187375
C	3.589431	1.529554	-3.367473
C	3.05662	1.20143	-0.811707
H	0.587696	0.885367	0.475661
H	0.603645	-0.894091	0.5335
H	0.603033	-0.054416	-1.036211
H	2.882813	0.009807	1.023792
H	2.378674	-2.084501	-0.75855
H	4.016848	-1.59718	-0.324579
H	3.543944	-1.334223	-3.017111
H	3.711425	2.579998	-3.065245
H	2.756968	1.492295	-4.090003
H	4.50019	1.228421	-3.908315
H	3.994052	1.601863	-0.381106
H	2.346687	2.047929	-0.826312
