15

C	3.118928	-1.326085	0.183327
O	4.331527	-0.692904	-0.084473
C	4.209194	0.676139	-0.296369
C	5.546152	1.287147	-0.575115
C	6.692134	0.594578	-0.609091
C	5.5601	2.742641	-0.821579
O	4.572066	3.436161	-0.808542
H	3.323502	-2.395001	0.335714
H	2.400461	-1.219852	-0.654237
H	2.63491	-0.927323	1.097167
H	3.75915	1.190446	0.57998
H	3.530269	0.902585	-1.146369
H	6.700682	-0.481868	-0.426316
H	7.641332	1.096491	-0.820415
H	6.573592	3.174624	-1.026773
