21

C	0.91171	-0.060097	-0.010395
C	2.426354	0.022479	0.080777
C	2.971287	1.454177	0.177456
N	2.456274	2.224161	1.300397
C	4.49717	1.456935	0.216535
C	5.119446	2.838142	0.098252
N	6.569736	2.754401	0.140735
H	0.564994	-1.101314	-0.086224
H	0.533908	0.480971	-0.893793
H	0.429621	0.379466	0.877553
H	2.878417	-0.470117	-0.797463
H	2.780658	-0.546484	0.961038
H	2.659511	1.991019	-0.740058
H	2.620826	1.721472	2.172745
H	1.451206	2.359837	1.226468
H	4.898093	0.81609	-0.585965
H	4.82385	0.988732	1.166563
H	4.664622	3.490193	0.870158
H	4.826669	3.270481	-0.875379
H	6.867569	2.433664	1.061427
H	6.978591	3.679703	0.028235
