15

C	0.90692	-0.115772	-0.01921
N	2.337939	-0.03446	-0.175317
C	2.871746	1.301516	-0.09517
C	4.363895	1.279563	-0.099903
C	5.126787	2.046068	-0.894111
C	6.55311	2.022136	-0.864106
N	7.713285	2.015647	-0.852866
H	0.577759	-1.160105	-0.123185
H	0.326728	0.498592	-0.7417
H	0.62019	0.215879	0.992598
H	2.63116	-0.475608	-1.04361
H	2.545146	1.736922	0.869615
H	2.496961	1.996855	-0.880694
H	4.833359	0.578553	0.599255
H	4.670516	2.739144	-1.610515
