12

C	0.93914	-0.017462	0.06236
C	2.421536	0.02271	0.148194
C	3.182273	1.074624	-0.21283
C	4.593924	1.088419	-0.119831
C	5.812146	1.126261	-0.048392
C	7.181306	1.161493	0.035368
N	8.343	1.189793	0.107244
H	0.609355	-0.850319	-0.581333
H	0.520636	0.918018	-0.335438
H	0.497276	-0.203099	1.055719
H	2.924332	-0.871741	0.534745
H	2.711106	1.985473	-0.603426
