17

C	1.057537	0.051153	0.000185
C	2.563521	0.010713	-0.025601
O	3.08639	1.028059	0.802844
C	4.364011	0.625342	1.203508
O	4.484056	-0.748218	0.951947
C	3.21341	-1.236096	0.572318
C	3.369914	-2.413042	-0.356785
H	0.637679	-0.750511	-0.625528
H	0.690305	1.013474	-0.38352
H	0.6909	-0.07117	1.030436
H	2.933799	0.136973	-1.066405
H	5.15746	1.152638	0.636426
H	4.475669	0.855123	2.280658
H	2.634552	-1.534628	1.472767
H	3.945944	-2.122658	-1.248135
H	2.385905	-2.788721	-0.674854
H	3.903688	-3.23263	0.144938
