19
-1785.2
C          5.68944       -2.54201        0.07825
C          5.63310       -1.44589       -0.96757
O          6.23932       -0.27531       -0.42365
C          6.18433        0.82468       -1.33156
C          6.57612        2.09320       -0.58237
O          6.97355        0.61322       -2.50099
C          8.36648        0.49031       -2.25536
H          5.24296       -3.46608       -0.30072
H          5.15473       -2.23783        0.98438
H          6.72509       -2.74368        0.37148
H          4.58935       -1.23967       -1.22900
H          6.17230       -1.76646       -1.86530
H          5.14841        0.95131       -1.66865
H          7.55614        1.98819       -0.10355
H          5.86001        2.30036        0.22034
H          6.62003        2.95305       -1.25800
H          8.84048        0.12161       -3.17006
H          8.57560       -0.22069       -1.45051
H          8.80236        1.46686       -2.02345
