16
-1612.68
N          2.18963        0.98059       -1.65023
C          2.32977        0.00642       -0.70507
O          1.86384       -1.11320       -0.87847
C          3.11496        0.40734        0.52716
C          4.55969        0.01784        0.42701
C          5.59748        1.00706       -0.03891
C          5.55975        0.58186        1.40310
H          2.75381        1.81836       -1.63899
H          1.74419        0.71230       -2.51822
H          2.65675       -0.09317        1.38798
H          3.00238        1.48505        0.69659
H          4.68076       -1.02437        0.14697
H          5.29530        2.02155       -0.27099
H          6.40955        0.63604       -0.65489
H          6.34464       -0.07651        1.75961
H          5.22176        1.30291        2.13883
