18
-1718.24
C          1.11712        0.13996        0.14397
C          2.61727       -0.00269       -0.09483
N          2.87701       -0.58744       -1.40687
C          3.30322        1.33135       -0.05548
C          3.79901        1.89441        1.25367
C          4.78046        1.41324        0.22636
O          5.48485        2.44494       -0.47790
H          0.92382        0.58099        1.12841
H          0.61772       -0.83460        0.10798
H          0.64829        0.79078       -0.60323
H          3.03490       -0.66863        0.66931
H          2.42835       -0.02160       -2.12547
H          2.43068       -1.50193       -1.45951
H          2.88926        2.03741       -0.76771
H          3.68766        1.30439        2.15511
H          3.71713        2.96379        1.41103
H          5.31374        0.49048        0.43366
H          5.71700        2.14246       -1.37332
