18
-1763.56
C          0.81852        0.23260       -0.03575
C          2.34513        0.03506        0.00959
C          2.70726       -0.75668        1.27648
N          2.73322       -0.76728       -1.16244
C          3.02739        1.43282        0.00000
C          4.47079        1.39766        0.02209
C          5.66046        1.36869        0.04029
H          0.51195        0.77492       -0.93723
H          0.47099        0.80729        0.83164
H          0.28768       -0.72672       -0.02764
H          2.45138       -0.19005        2.17935
H          3.77706       -0.98968        1.32156
H          2.16481       -1.70863        1.32129
H          2.50223       -0.27004       -2.02078
H          2.21105       -1.64151       -1.18018
H          2.67048        2.01119        0.86236
H          2.69887        1.98801       -0.88887
H          6.72516        1.33278        0.05200
