13

O	3.017865	-0.645417	-1.102519
C	2.267215	0.017939	-0.112864
C	2.753758	1.42065	-0.025088
C	2.166186	2.619491	0.311916
N	3.088865	3.627837	0.295836
C	4.218132	3.062286	-0.05006
N	4.070534	1.724716	-0.243337
H	2.796402	-1.580899	-1.0784
H	2.384222	-0.482807	0.871964
H	1.183155	0.032675	-0.336667
H	1.122217	2.798173	0.568638
H	5.173417	3.569815	-0.186574
H	4.752663	1.060611	-0.587366
