14

C	0.942934	-0.451914	0.118831
C	2.417979	-0.737909	0.122348
O	2.869699	-1.845923	-0.051236
C	3.334926	0.440394	0.374267
N	4.690485	0.001007	0.471161
C	5.692437	0.839718	0.81574
O	5.545728	2.015474	1.064963
H	0.711315	0.496863	-0.387186
H	0.598764	-0.357167	1.161896
H	0.404249	-1.282606	-0.353783
H	3.015674	0.974566	1.288419
H	3.192243	1.172368	-0.445092
H	4.856445	-0.981557	0.271504
H	6.684301	0.326725	0.848488
