14
-1329.86
C          0.99006        0.28809       -0.50102
C          2.29187        0.01025        0.18242
N          3.26297        0.86377        0.12055
N          4.34567        0.43243        0.79655
C          5.51878        0.95486        0.09293
C          5.01078        1.62183        1.33242
H          0.79535       -0.50657       -1.22442
H          1.01330        1.25352       -1.01176
H          0.19271        0.28570        0.24570
H          2.37135       -0.94666        0.73033
H          5.36922        1.44451       -0.86190
H          6.41226        0.34909        0.16732
H          5.55675        1.47225        2.25451
H          4.50687        2.57672        1.24206
