16
-1485.61
C          2.92800       -1.12028       -0.45278
N          2.36897        0.08269        0.14915
C          3.32972        1.19230        0.16805
C          3.43142        2.10707       -1.01939
C          2.80720        2.60829        0.24817
N          3.50661        3.61011        1.05371
H          2.17126       -1.91063       -0.46406
H          3.79157       -1.48420        0.11335
H          3.23323       -0.93841       -1.48832
H          2.05446       -0.13018        1.09579
H          4.25516        0.98313        0.70080
H          2.77437        1.93070       -1.86332
H          4.41171        2.47326       -1.29743
H          1.72659        2.73769        0.22444
H          4.51313        3.45389        1.05560
H          3.20852        3.55246        2.02690
