10
-1068.2
O          1.43972       -0.83796       -0.54006
C          2.34298       -0.12469        0.29467
C          2.05165        1.36693        0.33191
O          1.31119        1.92621       -0.47073
C          2.72908        2.13409        1.35425
C          3.28703        2.77394        2.20381
H          1.14365       -0.21133       -1.23023
H          3.35675       -0.27598       -0.08777
H          2.27018       -0.54054        1.30363
H          3.77417        3.35198        2.95558
