16
-1655.38
C          2.80946       -0.83700       -1.15999
C          2.46311        0.00067        0.06629
C          3.02739        1.43282        0.00000
C          2.51876        2.23291        1.18237
C          1.75006        3.32761        1.08635
C          4.47139        1.43282        0.00000
N          5.62240        1.43282        0.00000
H          2.32605       -1.81697       -1.09366
H          3.88836       -1.00475       -1.24073
H          2.46565       -0.35091       -2.07880
H          2.82950       -0.51778        0.96135
H          1.36963        0.04316        0.15132
H          2.67156        1.89854       -0.92847
H          2.80515        1.88390        2.17408
H          1.43371        3.72888        0.12856
H          1.42386        3.85404        1.97897
