16
-1589.94
C          0.92040        0.03379       -0.25321
C          2.34043        0.36372        0.05558
N          3.40888       -0.48980       -0.44285
C          3.26662        0.85811       -1.03026
C          4.43750        1.74652       -0.79587
C          4.58892        2.37646        0.55914
O          5.21504        1.97648       -1.71721
H          0.29714        0.92530       -0.13682
H          0.55180       -0.73090        0.43724
H          0.79211       -0.33822       -1.27460
H          2.46001        0.71982        1.07145
H          3.07100       -1.19036       -1.10521
H          2.88612        0.88833       -2.04606
H          3.68362        2.93237        0.81432
H          5.43055        3.07510        0.54318
H          4.78965        1.60832        1.30958
