17
-1710.01
C          1.18228        0.04313       -0.08809
C          2.68492       -0.05614        0.04455
C          3.27540       -1.38649        0.11594
C          2.61191       -2.55009        0.07232
C          3.41208        1.07952        0.09399
C          4.89042        1.26197        0.21283
O          5.15241        1.96347        1.41913
H          0.83672        1.08258       -0.12879
H          0.68515       -0.42573        0.76838
H          0.84111       -0.44388       -1.00836
H          4.35525       -1.45503        0.21417
H          1.53426       -2.61666       -0.02436
H          3.15371       -3.48958        0.13354
H          2.88131        2.03013        0.03279
H          5.25678        1.86822       -0.62128
H          5.46336        0.33349        0.22481
H          4.73874        1.44833        2.13326
