20
-1938.48
C          0.96744        0.01126       -0.02749
C          2.49362        0.00017        0.00574
N          2.99115        0.09141       -1.37119
C          3.06337        1.12928        0.87490
C          4.48020        0.67231        1.19773
C          4.37800       -0.84304        1.34007
C          3.05425       -1.25785        0.68691
H          0.54866       -0.06755        0.98240
H          0.57636       -0.82927       -0.61229
H          0.58509        0.93853       -0.46943
H          4.00980        0.07178       -1.38700
H          2.71738        0.98494       -1.77745
H          2.49052        1.22726        1.80544
H          3.05289        2.10527        0.37777
H          5.16196        0.92621        0.37719
H          4.86903        1.14600        2.10468
H          5.23254       -1.33897        0.86893
H          4.37448       -1.13097        2.39781
H          3.19962       -2.09003       -0.01324
H          2.37033       -1.62039        1.46320
