16
-1605.32
C          3.26303       -1.10676       -0.81250
C          2.54525        0.06981       -0.20846
O          1.46399       -0.05029        0.36133
N          3.18318        1.26740       -0.35118
C          2.89402        2.53861        0.28298
C          4.11854        3.07768       -0.46727
C          4.53094        1.62452       -0.73793
H          4.24244       -1.23135       -0.34347
H          3.37893       -0.95928       -1.88942
H          2.67885       -2.01586       -0.64422
H          2.98780        2.50212        1.37188
H          1.93678        2.97583       -0.00911
H          3.87084        3.64453       -1.37202
H          4.82007        3.65941        0.13693
H          4.77595        1.39655       -1.77758
H          5.29067        1.22049       -0.06298
