18

C	1.236137	0.020149	-0.085279
N	2.673948	0.055747	-0.169317
C	3.335021	-0.58461	-1.279029
C	3.347521	0.902095	-1.130463
C	2.585375	1.761062	-2.109888
C	4.598013	1.560198	-0.582268
O	5.514891	1.90408	-1.588003
H	0.878071	0.889428	0.488138
H	0.932083	-0.886018	0.461814
H	0.712219	0.013522	-1.061753
H	2.711923	-0.992709	-2.087993
H	4.218982	-1.190881	-1.040535
H	1.787334	1.216554	-2.632036
H	3.287213	2.152318	-2.860483
H	2.135419	2.626261	-1.595806
H	5.033049	0.894718	0.187981
H	4.321436	2.500385	-0.076018
H	5.765006	1.09091	-2.040192
