19
-1780.07
C          1.51993       -1.05143        0.03646
C          3.00116       -0.70752        0.03080
C          3.22513        0.80386        0.12350
C          4.70185        1.18276        0.05064
C          5.44461        0.70778        1.26986
N          6.39530       -0.16525        1.16002
N          6.94519       -0.49360        2.34993
H          1.38305       -2.13616       -0.01215
H          1.01094       -0.60584       -0.82392
H          1.03629       -0.68838        0.94877
H          3.45790       -1.09747       -0.88634
H          3.48383       -1.21386        0.87458
H          2.78871        1.18123        1.05632
H          2.69750        1.29806       -0.70140
H          4.79481        2.27394        0.02072
H          5.16569        0.77689       -0.85465
H          5.13588        1.13293        2.24270
H          7.83854       -0.96556        2.18251
H          6.37479       -1.20294        2.81873
