16
-1552.43
C          1.76688        2.87551       -1.39940
C          3.23035        2.58334       -1.67167
O          4.03508        3.71998       -1.32608
C          4.44591        3.77987       -0.02672
O          4.13535        2.98401        0.85235
C          5.28427        5.03697        0.19583
N          6.19776        4.86841        1.33776
H          1.13921        2.03651       -1.71292
H          1.44817        3.77518       -1.93603
H          1.59450        3.06209       -0.33471
H          3.37620        2.40187       -2.74150
H          3.56482        1.68233       -1.14460
H          4.59828        5.86884        0.38323
H          5.87870        5.24668       -0.69806
H          5.67840        4.43205        2.10386
H          6.49871        5.78228        1.66930
