13
-1344.87
N          0.90333        0.08962       -0.01223
C          2.29291        0.02704       -0.00704
C          2.87194       -1.38202       -0.03346
O          2.17488       -2.12729       -1.03306
C          3.05352        1.13799        0.00000
C          4.45952        1.13799        0.00000
N          5.61053        1.13799        0.00000
H          0.50345        0.92719       -0.42652
H          0.48919       -0.77352       -0.37783
H          2.70364       -1.87072        0.93137
H          3.94013       -1.42228       -0.26101
H          2.42222       -1.73361       -1.88722
H          2.57866        2.11258        0.02328
