17
-1785.27
C         -1.45578        0.66229        0.24129
C         -1.42232       -0.78660       -0.23033
C         -0.27785       -1.57309        0.32749
C          0.99390       -1.17437        0.45863
C          1.59104        0.05308       -0.00067
C          1.00445        1.19335       -0.39088
C         -0.44588        1.56328       -0.46106
H         -2.45798        1.06616        0.04809
H         -1.31016        0.71261        1.32811
H         -1.42585       -0.85389       -1.32471
H         -2.34716       -1.26815        0.11153
H         -0.53042       -2.57060        0.68420
H          1.69868       -1.87459        0.90656
H          2.68034        0.01953       -0.03587
H          1.67117        1.98919       -0.72459
H         -0.54983        2.56947       -0.03382
H         -0.71972        1.65352       -1.51990
