12
-1284.36
O          1.06611        0.01590        0.46176
C          2.25246       -0.02882        0.20676
C          3.31508        1.02607       -0.11949
N          4.22482       -0.08860       -0.44059
C          3.32732       -1.12821        0.10794
C          3.06487       -2.15598       -0.87107
C          2.85292       -3.01953       -1.67845
H          3.62051        1.62242        0.74420
H          3.06824        1.67514       -0.96229
H          4.39334       -0.19284       -1.44270
H          3.63985       -1.50309        1.08847
H          2.66172       -3.79209       -2.38805
