13
-1313.03
C         -1.46010        0.58398        0.28685
C         -1.35001       -0.76562       -0.38911
C         -0.29386       -1.47206        0.38092
N          0.93923       -1.09619        0.46347
N          1.40536       -0.06463       -0.34465
C          0.79812        1.06521       -0.50365
O         -0.42791        1.49331       -0.12476
H         -2.40792        1.05033       -0.00214
H         -1.44662        0.52353        1.38140
H         -1.07187       -0.69719       -1.44443
H         -2.28095       -1.33187       -0.29252
H         -0.61158       -2.33458        0.98961
H          1.29938        1.87670       -1.05405
