14

O	0.583307	-0.125838	-0.75701
N	1.568628	-0.285514	0.186468
C	2.57213	-1.284473	-0.104065
C	2.018036	-2.677116	-0.107543
C	2.445271	-3.660744	0.682936
C	1.752545	0.732043	1.074037
O	2.676023	0.807909	1.849223
H	-0.155249	-0.674649	-0.458449
H	3.345049	-1.159252	0.668108
H	3.024987	-1.053335	-1.086949
H	1.221687	-2.87515	-0.836535
H	3.244688	-3.498003	1.413602
H	2.018134	-4.665627	0.627404
H	0.923485	1.474779	0.997104
