16
-1549.38
C          0.22232       -1.74167        0.67627
N          1.24549       -1.16287       -0.20451
C          1.97356       -2.25636       -0.87406
C          2.19179       -0.34177        0.60997
C          2.88574        0.68412       -0.28538
O          2.21669        0.87634       -1.45212
O          3.88976        1.30790        0.02104
H          0.65819       -2.36987        1.46163
H         -0.48351       -2.34790        0.09760
H         -0.36465       -0.94848        1.15253
H          1.28750       -2.83858       -1.49936
H          2.44987       -2.93643       -0.15839
H          2.74757       -1.86234       -1.54123
H          2.93987       -0.96285        1.11415
H          1.64212        0.24222        1.35765
H          1.45796        0.24285       -1.44113
