18
-1753.05
C          0.94422       -0.14644       -0.09862
C          2.44184        0.13075       -0.02302
C          2.87552        1.58459       -0.04017
C          2.03472        2.62958       -0.13687
C          4.36714        1.82253        0.09732
C          5.15139        1.40515       -1.13938
H          0.76244       -1.22622       -0.07483
H          0.51353        0.24189       -1.02766
H          0.41229        0.29946        0.74832
H          2.91715       -0.38838       -0.86334
H          2.82444       -0.33171        0.89532
H          0.96038        2.50987       -0.22394
H          2.40099        3.65235       -0.13297
H          4.74253        1.28001        0.97354
H          4.56821        2.88406        0.29068
H          5.11001        0.32260       -1.29430
H          6.20440        1.68271       -1.02733
H          4.76551        1.89598       -2.03878
