12

O	1.609257	0.154592	1.142402
C	2.373904	0.038917	0.232056
N	2.901717	-1.11412	-0.299946
C	3.898689	-0.852526	-1.277872
C	5.082245	-0.021094	-0.83607
C	3.851677	0.642059	-1.376386
O	2.895955	1.096022	-0.463044
H	2.809878	-1.981027	0.211079
H	3.946757	-1.512505	-2.148311
H	5.285668	0.05948	0.235713
H	5.961651	-0.016675	-1.485059
H	3.856583	1.199267	-2.315393
