16
-1495.
N          1.55565       -0.36296       -0.94826
C          2.60179       -0.16861        0.04348
C          2.96585        1.27809        0.09770
C          4.20231        1.75649       -0.12002
C          4.56623        3.20340       -0.06459
N          5.61001        3.39765        0.92927
H          1.31606       -1.35211       -0.98417
H          1.93356       -0.13407       -1.86696
H          3.46531       -0.79601       -0.20250
H          2.23310       -0.48229        1.02551
H          2.15711        1.96358        0.34288
H          5.01144        1.07141       -0.36517
H          3.70175        3.83027        0.17998
H          4.93642        3.51774       -1.04604
H          5.23160        3.16425        1.84642
H          5.84629        4.38727        0.96899
