16
-1591.14
C          1.21763       -0.92182        1.05828
C          1.98725       -1.14182       -0.24028
C          2.94473       -2.31938       -0.09281
O          1.10185       -1.45782       -1.31776
C          0.36960       -0.33307       -1.81435
C         -0.36121       -0.69196       -3.04220
N         -0.94859       -0.94069       -4.01245
H          0.59726       -0.02213        1.00054
H          1.89819       -0.80350        1.90738
H          0.54271       -1.76063        1.26044
H          2.57196       -0.24823       -0.48981
H          2.39950       -3.24502        0.12317
H          3.67172       -2.14516        0.70633
H          3.48966       -2.48665       -1.02835
H          1.06099        0.48850       -2.03243
H         -0.34438        0.00165       -1.05545
