19
-1902.2
C          1.52984       -0.71397       -0.59140
C          2.42754        0.11618       -1.13744
C          3.00362        1.31128       -0.43582
C          4.52404        1.20223       -0.30075
C          5.10051        2.42290        0.42129
C          6.59305        2.32927        0.55427
C          7.44892        3.22527        0.04727
H          1.14306       -1.56091       -1.15152
H          1.15942       -0.57156        0.41932
H          2.76220       -0.06714       -2.15694
H          2.55309        1.43096        0.55697
H          2.74654        2.20821       -1.01236
H          4.97977        1.11143       -1.29549
H          4.78213        0.28923        0.25186
H          4.66710        2.49712        1.42598
H          4.81693        3.33647       -0.11648
H          6.98641        1.48052        1.11027
H          7.10654        4.09232       -0.50880
H          8.51987        3.10770        0.18167
