16
-1612.53
C          2.42037        3.40073        1.06129
N          3.76706        3.03980        0.70621
C          4.02970        1.86607        0.04446
O          3.16615        1.06735       -0.29934
C          5.48177        1.56876       -0.16025
C          5.84668        0.11473       -0.13889
C          6.37561        2.54129       -0.40564
H          2.41304        4.43941        1.39934
H          2.07705        2.74462        1.86551
H          1.76380        3.28591        0.19405
H          4.53281        3.54515        1.13214
H          5.32366       -0.42635       -0.93407
H          5.57734       -0.33214        0.82356
H          6.92098       -0.03829       -0.28676
H          6.09681        3.58693       -0.47948
H          7.42299        2.30612       -0.57906
