17

C	1.010564	0.144072	0.14018
C	2.486083	-0.101945	-0.036208
O	3.294792	0.928163	0.546764
C	4.048576	-0.016019	1.29682
C	3.16215	-1.179459	0.829776
C	3.829411	-2.337961	0.121422
O	4.542112	-3.173571	0.99314
H	0.425022	-0.688589	-0.280626
H	0.712594	1.069365	-0.375723
H	0.762009	0.250043	1.206871
H	2.722747	-0.218547	-1.114206
H	5.10237	-0.078029	0.954618
H	4.049746	0.208281	2.37809
H	2.505794	-1.567572	1.624678
H	4.472504	-1.946345	-0.695101
H	3.061231	-2.967197	-0.357979
H	5.269193	-2.664739	1.366654
