19
-1785.21
C          0.92546        2.34106        1.72136
C          2.43602        2.27840        1.60802
O          2.76564        1.74950        0.32611
C          4.17235        1.66411        0.13415
O          4.80086        2.93952        0.06983
C          4.38987        3.67604       -1.07980
C          5.13412        4.99667       -1.08950
H          0.62342        2.75132        2.68889
H          0.48885        1.34358        1.60793
H          0.50564        2.96521        0.92574
H          2.84174        1.63051        2.39309
H          2.85357        3.28469        1.72071
H          4.36405        1.10985       -0.79136
H          4.62619        1.09413        0.95232
H          3.31137        3.86385       -1.04007
H          4.62355        3.11102       -1.98879
H          4.92925        5.56142       -0.17428
H          4.84193        5.60247       -1.95159
H          6.21551        4.82891       -1.12536
