11
-1255.76
O          0.98127       -0.04330        0.00001
C          2.20347       -0.02745        0.00000
C          2.93059        1.21763        0.00000
C          3.52567        2.24834        0.00000
C          4.24767        3.49888        0.00000
C          3.64444        4.81085        0.00000
C          3.14726        5.89218        0.00000
H          2.81987       -0.93994       -0.00000
H          4.92626        3.46736       -0.86488
H          4.92626        3.46736        0.86488
H          2.69613        6.85791        0.00000
