17

C	0.993423	-0.010902	-0.0053
C	2.523958	-0.00722	0.01059
C	3.02252	-0.717384	1.272038
C	3.048792	-0.739208	-1.227506
C	3.031039	1.437405	0.003419
H	0.603943	0.495409	-0.903336
H	0.585532	0.509107	0.876574
H	0.597694	-1.039434	-0.001528
H	2.6591	-0.213085	2.18207
H	4.12394	-0.73119	1.311901
H	2.671722	-1.761337	1.304604
H	2.703488	-0.251847	-2.153672
H	2.699604	-1.783996	-1.248399
H	4.150834	-0.752371	-1.24461
H	2.687211	1.974755	-0.895318
H	4.132808	1.473099	0.015551
H	2.666991	1.990631	0.884363
