14

O	1.276991	-0.720249	-0.519156
C	2.344629	-0.329464	-0.114411
C	2.851098	1.035999	-0.285769
C	4.051184	1.397733	0.196156
C	4.63959	2.739026	0.092608
C	5.328438	3.37051	1.258555
N	6.095841	2.816239	0.171137
H	3.042747	-1.014838	0.437605
H	2.204439	1.737239	-0.82405
H	4.667644	0.656949	0.722864
H	4.11482	3.428602	-0.580743
H	5.390488	2.829542	2.209255
H	5.225297	4.457582	1.360821
H	6.452274	3.541139	-0.449153
