16
-1504.27
C          0.98442       -0.13477       -0.06469
C          2.47885        0.03735        0.15933
O          3.19122       -0.64838       -0.88273
C          2.94592        1.50534        0.16172
C          2.33918        2.34033        1.27719
O          4.37059        1.52822        0.31534
H          0.40005        0.27679        0.76327
H          0.73477       -1.19656       -0.16724
H          0.66802        0.35311       -0.99356
H          2.77294       -0.44738        1.09684
H          2.83691       -0.34381       -1.73689
H          2.73290        1.96786       -0.80928
H          2.54968        1.89588        2.25563
H          1.25713        2.44477        1.16347
H          2.78155        3.34237        1.28659
H          4.70211        0.74413       -0.16710
