16
-1556.59
C          3.19376       -1.38339       -0.61755
C          2.56582       -0.19215        0.08314
N          3.16439        1.05022       -0.34454
C          4.32162        1.55255        0.21147
O          4.92107        1.03037        1.14498
C          4.77991        2.85818       -0.44169
O          4.34875        2.97005       -1.79469
H          2.71392       -2.31298       -0.29558
H          4.26391       -1.45520       -0.39474
H          3.08564       -1.29928       -1.70451
H          2.67983       -0.29290        1.16714
H          1.49822       -0.13698       -0.14861
H          2.77852        1.55549       -1.13754
H          5.87232        2.91067       -0.41861
H          4.36471        3.69526        0.12667
H          4.86291        2.31314       -2.29807
