17
-1726.03
C          0.90987       -0.02314        0.14886
C          2.42539       -0.00567       -0.02077
C          2.82381        0.02393       -1.49832
C          3.14517        1.09443        0.83043
C          4.12616       -0.01066        1.27568
O          5.22936       -0.00829        1.77829
C          3.16713       -1.11899        0.79196
H          0.62450       -0.04401        1.20600
H          0.47341       -0.90551       -0.33094
H          0.45601        0.86653       -0.30059
H          3.91204        0.03727       -1.62358
H          2.42135        0.91471       -1.99257
H          2.43961       -0.85747       -2.02270
H          2.56736        1.50314        1.66533
H          3.60740        1.91038        0.26959
H          3.64551       -1.90582        0.20401
H          2.59803       -1.56781        1.61237
