17
-1572.56
C          3.32613       -1.09851       -1.16329
C          2.75856       -0.23624       -0.04463
O          3.14197       -0.79778        1.20776
C          3.18361        1.23780       -0.12660
C          4.69439        1.49075       -0.07331
N          5.28823        0.98873        1.16554
H          3.07777       -0.68914       -2.14711
H          2.91902       -2.11372       -1.09785
H          4.41327       -1.20078       -1.08327
H          1.66489       -0.28293       -0.09067
H          4.06606       -0.50079        1.36404
H          2.71430        1.78198        0.70366
H          2.79083        1.67207       -1.05422
H          4.88238        2.56771       -0.14699
H          5.19053        1.02023       -0.92799
H          4.91269        1.52301        1.95319
H          6.28954        1.19195        1.15733
