13

C	1.139538	-0.242548	-0.202069
O	2.430614	0.032387	0.262211
C	2.881242	1.331834	-0.00029
C	2.342201	2.365026	0.98447
C	4.353275	1.301438	0.03488
N	5.508936	1.300255	0.071569
H	0.934125	-1.297978	0.021627
H	1.055749	-0.09175	-1.296521
H	0.365378	0.370969	0.294424
H	2.602531	1.631638	-1.03319
H	2.620563	2.083771	2.010131
H	1.2461	2.420894	0.917344
H	2.748956	3.362787	0.765745
