16
-1616.05
N          1.06850       -0.13080        0.00718
C          2.52433       -0.05226       -0.03944
C          3.23652       -0.59940       -1.24268
C          3.16933        0.89170       -1.02113
C          4.38076        1.66856       -0.61043
C          5.07400        1.97344       -1.86820
C          5.64649        2.22656       -2.89145
H          0.68601        0.55596        0.65618
H          0.76488       -1.04318        0.34617
H          3.01897       -0.19518        0.91917
H          2.64612       -1.00996       -2.05407
H          4.18291       -1.10421       -1.08858
H          2.50690        1.46822       -1.66015
H          5.02867        1.09492        0.06068
H          4.08180        2.58708       -0.09580
H          6.15187        2.44952       -3.80382
