15
-1530.37
C          1.16598       -0.52409        2.27738
C          1.30920        0.09561        1.09903
C          2.27976        1.21792        0.84372
C          3.31236        0.85435       -0.22615
O          2.69858        0.68212       -1.51643
C          2.47983        1.82167       -2.21660
O          2.73996        2.95950       -1.86086
H          0.44169       -1.32407        2.39836
H          1.75949       -0.25124        3.14435
H          0.68418       -0.21166        0.26192
H          2.80647        1.48163        1.76811
H          1.70335        2.09699        0.53434
H          3.80819       -0.09105        0.02299
H          4.09886        1.61726       -0.28002
H          2.01587        1.56390       -3.18140
