15
-1588.
C          1.11655       -0.10592        0.12233
C          2.43380        0.01193       -0.06585
C          3.23694        1.27440       -0.03339
C          4.49050        0.89126       -0.81077
C          4.49312       -0.60260       -0.71058
C          5.53860       -1.41576       -0.87938
O          3.23829       -1.07027       -0.36819
H          0.63494       -1.07593        0.05730
H          0.49819        0.75678        0.34207
H          3.49325        1.52622        1.00263
H          2.72194        2.12528       -0.48917
H          4.39547        1.19374       -1.85995
H          5.38725        1.35308       -0.38687
H          5.42680       -2.48886       -0.76498
H          6.51931       -1.02966       -1.13262
