17
-1731.4
O          1.19096       -0.01485        0.80146
C          2.46425        0.02936        0.15606
C          2.51218        1.21299       -0.80854
C          3.84258        1.27054       -1.55818
C          4.29410       -0.07071       -2.05682
C          3.76971       -1.22673       -1.62658
C          2.69962       -1.30117       -0.57578
H          1.04683        0.85028        1.22097
H          3.22678        0.15632        0.93655
H          2.34649        2.15072       -0.26692
H          1.68279        1.13430       -1.52214
H          4.62288        1.67670       -0.90253
H          3.74465        1.95944       -2.40509
H          5.08001       -0.08444       -2.80860
H          4.12069       -2.16724       -2.04339
H          1.76907       -1.64681       -1.04172
H          2.96676       -2.06645        0.16346
