21
-2046.05
C          2.23686       -1.03417       -0.78772
C          1.89930        0.27245       -0.08531
C          3.12447        1.12769        0.19089
C          4.02655        0.60102        1.28113
C          3.76340        1.86289       -0.97303
C          2.95245        2.63537        0.03103
C          3.61117        3.62791        0.92943
H          1.32029       -1.58876       -1.01413
H          2.86826       -1.67471       -0.16423
H          2.76668       -0.85339       -1.72888
H          1.38676        0.05907        0.85939
H          1.18418        0.82191       -0.70957
H          4.93632        1.19797        1.39825
H          4.34673       -0.42156        1.06246
H          3.49785        0.59817        2.23933
H          3.34352        1.73213       -1.96508
H          4.84142        1.98550       -0.97856
H          1.97822        2.99889       -0.28355
H          4.67587        3.42623        1.07515
H          3.12180        3.63317        1.90771
H          3.52234        4.63148        0.50137
