12

N	0.97951	0.09147	0.053221
C	2.136825	0.046077	0.014918
C	3.562169	-0.036673	-0.032951
C	4.323042	-1.142482	-0.050298
C	5.758873	-0.704149	-0.014521
C	5.615995	0.803648	-0.279305
O	4.24174	1.135238	-0.037953
H	3.954809	-2.165701	-0.022716
H	6.20999	-0.925534	0.97052
H	6.387107	-1.199716	-0.771057
H	5.842266	1.048257	-1.331272
H	6.237394	1.436095	0.368685
