12
-1391.8
N          1.00000        0.00000        0.00000
C          2.15101        0.00000        0.00000
C          3.59501        0.00000        0.00000
C          4.16389        1.16557       -0.77261
C          4.92738        0.71966       -1.78376
C          4.92628       -0.72239       -1.78176
C          4.16350       -1.16593       -0.77110
H          3.99124        0.00044        1.02131
H          3.98358        2.20407       -0.53548
H          5.46070        1.32587       -2.50063
H          5.45966       -1.33119       -2.49866
H          3.98282       -2.20510       -0.53271
