13
-1353.79
C          1.00000        0.00000        0.00000
C          2.19016        0.00000        0.00000
C          3.63416        0.00000        0.00000
C          4.22687        1.11723        0.83012
O          5.52208        0.62723        1.17862
C          5.33110       -0.78455        1.29345
O          4.13197       -1.18532        0.63179
H         -0.06574       -0.01080        0.00174
H          4.03950        0.01915       -1.01809
H          3.67252        1.29572        1.75913
H          4.30954        2.06226        0.28503
H          6.18701       -1.30137        0.84897
H          5.26101       -1.05571        2.35063
