14
-1351.27
C          0.76938        0.11755       -0.02807
C          2.23268       -0.22484        0.07415
C          2.62010       -1.67600       -0.07418
N          3.07842        0.74103        0.27800
N          4.39941        0.31536        0.35089
C          5.18638        1.31655        0.55751
H          0.61254        1.19278        0.09511
H          0.21806       -0.41590        0.75118
H          0.39452       -0.18866       -1.00862
H          1.72922       -2.29530       -0.20996
H          3.14552       -2.01346        0.82339
H          3.26652       -1.79695       -0.94775
H          6.27135        1.15239        0.64154
H          4.82725        2.35493        0.65774
