16

C	1.216137	-0.267412	-0.377149
C	2.717513	-0.23463	-0.141575
C	3.209668	1.099284	0.406805
C	4.692427	1.119723	0.653268
C	5.639391	1.621881	-0.344396
O	5.304837	2.383073	0.795803
H	0.887645	-1.241385	-0.770359
H	0.908914	0.505067	-1.100601
H	0.660926	-0.082056	0.556437
H	3.248975	-0.455768	-1.084045
H	3.000864	-1.042234	0.556429
H	2.689637	1.329215	1.353947
H	2.960102	1.919341	-0.287493
H	5.058941	0.357788	1.359796
H	5.256383	2.00193	-1.301496
H	6.664879	1.230931	-0.37657
