17

C	1.007807	0.124031	-0.235698
O	2.399662	0.097871	-0.072049
C	3.070942	1.266055	-0.113125
C	4.390717	1.362389	-0.336839
C	4.862587	2.776267	-0.159186
C	3.551108	3.581484	-0.208667
C	2.452837	2.601258	0.224726
H	0.663961	-0.917939	-0.192254
H	0.711925	0.548743	-1.212239
H	0.499895	0.690753	0.564853
H	5.037712	0.507125	-0.537009
H	5.376553	2.902234	0.814445
H	5.581817	3.102884	-0.928747
H	3.359732	3.88646	-1.249623
H	3.575995	4.497572	0.399583
H	1.493684	2.791974	-0.282448
H	2.248357	2.652079	1.311307
