12
-1119.26
O          0.91436        0.01106       -0.01130
C          2.35660        0.02002       -0.00830
C          3.04784        1.02505        0.93870
N          4.04842       -0.01598        1.27300
C          3.07124       -1.04528        0.85188
H          0.67120       -0.79868       -0.49135
H          2.74280        0.06977       -1.03521
H          2.43878        1.33840        1.79459
H          3.46228        1.91593        0.45821
H          4.87885        0.02195        0.68161
H          3.50401       -1.88350        0.29849
H          2.46982       -1.44265        1.67744
