12
-1354.98
C          0.98752        0.19716        0.13971
C          2.31514        0.05983       -0.03264
C          2.98695       -1.28872       -0.05324
C          3.38559       -1.64896       -1.42238
C          3.71484       -1.94503       -2.53903
C          3.13378        1.22515       -0.15236
N          3.79547        2.17516       -0.23365
H          0.51418        1.17576        0.16888
H          0.33623       -0.66532        0.24627
H          2.31643       -2.06131        0.34318
H          3.86355       -1.27825        0.60603
H          4.00956       -2.20269       -3.53055
