17
-1667.71
C          3.06040       -0.89326        0.94878
C          2.64998       -0.00247       -0.21982
C          3.06629        1.46668       -0.05437
C          2.54469        2.30663       -1.21804
O          2.49691        1.99017        1.14315
C          4.59074        1.58310       -0.02400
O          5.20773        1.93542        0.97987
H          2.70487       -1.91519        0.78190
H          2.63165       -0.53983        1.89140
H          4.14847       -0.93310        1.05694
H          1.55759       -0.06100       -0.30881
H          3.07429       -0.41562       -1.14326
H          2.92983        1.95221       -2.18019
H          2.84158        3.35580       -1.10284
H          1.44953        2.29296       -1.25282
H          3.22427        2.04079        1.79711
H          5.11835        1.30279       -0.95180
