17

N	2.35758	-0.574368	-1.407789
C	2.414182	-0.028743	-0.071038
C	3.308931	1.18409	0.010013
O	2.790892	2.347115	-0.633129
C	3.103015	3.163863	0.489933
C	3.400855	1.936818	1.359387
N	4.582551	1.964111	2.165533
H	1.671848	-1.322705	-1.468402
H	3.255137	-0.975969	-1.671479
H	2.7656	-0.735974	0.717394
H	1.400834	0.291716	0.224857
H	4.322084	0.931613	-0.37691
H	4.001118	3.792632	0.323492
H	2.267941	3.820081	0.78909
H	2.539844	1.679576	1.998825
H	5.414312	2.095135	1.5929
H	4.703747	1.097468	2.683735
