17
-1621.35
C          1.05892       -0.06571       -0.00712
C          2.54804       -0.02853       -0.05788
C          3.28052       -0.58996       -1.24923
C          3.25059        0.90305       -1.01780
C          4.47905        1.63618       -0.58885
N          5.26412        1.92281       -1.77875
H          0.68639        0.71677        0.66103
H          0.71990       -1.03260        0.37714
H          0.60873        0.08571       -0.99359
H          2.98530       -0.18798        0.92163
H          2.70402       -0.97893       -2.08123
H          4.20497       -1.12619       -1.06713
H          2.63596        1.50465       -1.68039
H          5.07523        1.04882        0.11789
H          4.19764        2.57275       -0.09730
H          5.53153        1.04333       -2.21802
H          6.13183        2.37848       -1.50320
