18

C	0.893279	-0.363841	0.231594
N	2.214407	-0.118552	-0.291362
C	2.66158	-1.192984	-1.142546
C	2.358973	1.174322	-0.919683
C	2.316071	2.329948	0.084576
C	2.59627	3.61857	-0.533242
C	2.828913	4.681333	-1.065739
H	0.611833	0.400086	0.971511
H	0.868746	-1.335729	0.747985
H	0.105404	-0.379484	-0.556955
H	2.630859	-2.14735	-0.59379
H	3.702798	-1.02265	-1.456739
H	2.04584	-1.314754	-2.06279
H	1.595202	1.349074	-1.713055
H	3.337103	1.202263	-1.425031
H	3.049651	2.124853	0.882405
H	1.329811	2.38278	0.574774
H	3.036531	5.625555	-1.533701
