15
-1524.4
C          0.88834       -0.39583        0.06699
C          2.34294        0.05791        0.02101
O          3.07317       -0.82312       -0.82557
C          2.60797        1.45038       -0.47382
C          1.69774        2.34487       -0.88601
C          2.12021        3.68386       -1.34472
O          1.30040        4.50704       -1.73315
H          0.29234        0.23031        0.73854
H          0.82778       -1.43211        0.41810
H          0.43201       -0.38077       -0.92941
H          2.76866       -0.03446        1.02631
H          2.66448       -0.78588       -1.70741
H          3.66380        1.72041       -0.47528
H          0.63129        2.15578       -0.91240
H          3.20190        3.89535       -1.31883
