17
-1704.09
C          0.27159       -0.32136       -0.07156
C          1.72295       -0.02448       -0.26366
C          2.33093        1.17326       -0.23190
C          1.62194        2.49201       -0.09286
O          3.70461        1.20221       -0.47387
C          4.50808        2.10648        0.17203
C          5.78894        2.27387       -0.16325
H          0.15692       -1.12010        0.66799
H         -0.16579       -0.66482       -1.01358
H         -0.30214        0.53664        0.28590
H          2.34791       -0.90022       -0.43544
H          0.56335        2.42789       -0.35987
H          2.06249        3.23791       -0.76294
H          1.69110        2.85961        0.93536
H          4.04253        2.64866        0.98257
H          6.23029        1.70069       -0.97164
H          6.41584        2.98323        0.36400
