15
-1609.65
C          1.04098       -0.12116        0.39044
C          2.47109       -0.03413       -0.08328
C          3.06825       -1.13740       -0.57222
C          3.15006        1.26777       -0.01508
C          2.74102        2.27365        0.77674
C          4.28454        1.51935       -0.85250
C          5.23068        1.74151       -1.55854
H          0.42206        0.63684       -0.10231
H          0.97918        0.01840        1.47477
H          0.59233       -1.09504        0.16381
H          2.54692       -2.08838       -0.62260
H          4.09451       -1.13830       -0.92603
H          1.89305        2.18784        1.44520
H          3.26285        3.22629        0.78788
H          6.06676        1.93879       -2.18786
