18
-1753.91
C          2.68619       -1.04124        1.26129
C          3.25474       -0.41997       -0.00457
C          3.15610        1.07859        0.02864
C          4.21522        1.90039       -0.03573
C          4.11590        3.39866       -0.01363
C          4.85875        3.98617        1.17592
H          2.76469       -2.13212        1.21424
H          1.62890       -0.78471        1.38902
H          3.22951       -0.70038        2.14882
H          2.69900       -0.78908       -0.87335
H          4.29487       -0.74184       -0.12876
H          2.15317        1.49677        0.10015
H          5.21678        1.48246       -0.11882
H          3.06938        3.72290        0.01854
H          4.54498        3.79297       -0.94191
H          4.44023        3.62482        2.12166
H          4.78229        5.07808        1.16714
H          5.92123        3.72213        1.15026
