13
-1337.21
C          2.48219       -1.09254        0.09150
C          2.15123        0.20511        0.11060
N          2.93453        1.29941       -0.25431
C          2.36332        2.56253       -0.15638
N          2.92538        3.68513       -0.44722
C          4.24506        1.17294       -0.70291
O          4.99500        2.08387       -1.04699
H          1.75275       -1.83435        0.40900
H          3.44022       -1.48580       -0.22289
H          1.14515        0.45156        0.45052
H          1.32358        2.57249        0.20985
H          3.89228        3.50977       -0.77503
H          4.60757        0.13732       -0.73741
