13
-1376.32
C          2.20320       -1.25862       -0.45748
O          3.47828       -0.64019       -0.27722
C          3.42681        0.72470       -0.19575
O          2.39792        1.38293       -0.26476
C          4.83030        1.26231       -0.00896
C          4.88531        2.73096        0.07514
C          4.93742        3.92855        0.14409
H          2.35427       -2.34096       -0.49524
H          1.75322       -0.93840       -1.40238
H          1.54282       -1.03064        0.38506
H          5.43845        0.92585       -0.85582
H          5.23947        0.83106        0.91120
H          4.97221        4.99241        0.20392
