18
-1788.35
C          1.46944        0.27625       -0.36192
C          2.81751       -0.08472        0.17123
C          3.07795       -1.53093        0.51903
C          4.22970       -1.93452       -0.41047
C          5.06319       -0.65941       -0.58608
C          4.05685        0.44906       -0.49334
N          3.62368        0.96548        0.79497
H          1.41438        1.32684       -0.66797
H          0.70280        0.10812        0.40204
H          1.22331       -0.33945       -1.23399
H          2.20400       -2.16992        0.35479
H          3.37578       -1.62847        1.57007
H          4.81529       -2.77102       -0.01909
H          3.81988       -2.23370       -1.38304
H          5.81396       -0.57230        0.20811
H          5.58183       -0.65960       -1.55004
H          3.97608        1.08772       -1.35977
H          4.18941        0.59748        1.56053
