13
-1329.87
N          1.01716       -0.01643        0.04724
C          2.47000        0.00000        0.00000
C          2.95202        1.36117        0.00000
C          3.34930        2.48307        0.00000
C          3.91043        3.80973       -0.01010
N          5.26972        3.87153        0.02965
O          3.20011        4.80021       -0.06091
H          0.68749       -0.97323       -0.05746
H          0.65124        0.50341       -0.74937
H          2.81031       -0.52533       -0.89865
H          2.86197       -0.54555        0.86436
H          5.84229        3.04201        0.07547
H          5.70596        4.78193        0.02581
