12

C	0.318541	0.964701	-0.203501
O	-0.753757	0.187972	0.282993
C	0.488793	-0.455161	0.107692
C	1.17437	-0.893494	1.357206
C	1.346162	-2.313181	1.667977
O	2.417388	-1.536002	1.180299
H	0.243775	1.283034	-1.251327
H	0.716042	1.718997	0.488761
H	0.54404	-1.175676	-0.721909
H	1.120255	-0.17306	2.186916
H	0.948019	-3.06783	0.976419
H	1.422102	-2.631689	2.715694
