13

N	1.769355	-0.750446	0.266615
C	2.29029	0.286553	-0.244824
C	2.143366	0.54255	-1.663134
C	2.060608	0.82084	-2.840481
N	3.026312	1.224629	0.533849
C	4.190533	1.877778	-0.050896
C	2.954744	2.641391	0.200324
H	1.986888	-0.744884	1.270012
H	1.97107	1.046926	-3.887826
H	4.430524	1.652011	-1.096921
H	5.05166	1.961748	0.619621
H	2.870893	3.30992	1.063206
H	2.363128	2.930353	-0.676914
