10
-1144.34
C          1.13910       -0.01811        0.05351
C          2.46110       -0.02339       -0.14378
O          3.18350       -1.15964       -0.43356
C          4.40824       -0.57061       -0.52094
N          4.56234        0.69420       -0.34074
C          3.31648        1.17464       -0.07850
O          2.97239        2.31669        0.15598
H          0.61220        0.90435        0.27994
H          0.56170       -0.93347       -0.00767
H          5.20629       -1.28979       -0.75500
