18
-1721.45
C          0.92805       -0.11927       -0.05609
C          2.45299       -0.02464        0.00400
N          3.03612       -0.85438       -1.04734
C          2.90243        1.41472       -0.07170
C          3.71690        1.96115       -0.98989
C          4.14486        3.39028       -1.01216
O          5.55730        3.44011       -0.89018
H          0.46816        0.43759        0.76794
H          0.59611       -1.16048        0.02693
H          0.53379        0.28592       -0.99537
H          2.78822       -0.42391        0.96867
H          2.66912       -0.55095       -1.94822
H          2.72078       -1.81582       -0.93200
H          2.52266        2.04984        0.72909
H          4.12487        1.34705       -1.79020
H          3.70455        3.97396       -0.19790
H          3.86309        3.85459       -1.96187
H          5.79595        2.84307       -0.15988
