18

C	1.049863	-0.0438	-0.044582
C	2.548169	0.037689	-0.011398
C	3.469892	-0.575595	-1.103168
C	4.535836	-0.365712	-0.002154
C	3.418925	-0.739221	1.001473
C	4.528963	1.158895	0.131165
N	3.070383	1.40338	0.169727
H	0.626003	0.386494	0.875488
H	0.711482	-1.085878	-0.137993
H	0.644271	0.521282	-0.899962
H	3.577227	-0.021612	-2.051843
H	3.265286	-1.637616	-1.302523
H	5.510777	-0.872344	-0.017159
H	3.195938	-1.815656	1.013087
H	3.473174	-0.336457	2.02535
H	5.024223	1.502423	1.055561
H	5.026741	1.653993	-0.720155
H	2.782619	1.986356	-0.614325
