13

C	0.968187	-0.065844	0.002912
C	2.495233	-0.025454	-1.9e-05
C	3.04022	1.323518	7.9e-05
C	3.456222	2.464592	0.000225
C	3.938546	3.839094	0.000408
O	5.277601	3.950544	-0.000309
O	3.228946	4.802309	0.000958
H	0.614294	-1.106721	0.002717
H	0.558548	0.437836	-0.884503
H	0.562012	0.436308	0.892785
H	2.893012	-0.559723	-0.880594
H	2.89645	-0.561306	0.878023
H	5.67211	3.069028	-0.000742
