16

C	0.859349	0.284375	0.890862
C	1.776741	0.113903	-0.063217
C	2.973318	0.990365	-0.272518
C	4.295745	0.270729	0.004563
C	4.435958	-0.216216	1.45064
C	4.357457	0.86772	2.424527
N	4.290921	1.747551	3.173867
H	0.01166	-0.397779	0.999312
H	0.920856	1.120258	1.596315
H	1.681243	-0.741631	-0.746071
H	2.900764	1.884935	0.368334
H	2.988408	1.350299	-1.315489
H	5.135888	0.94103	-0.237809
H	4.39342	-0.607707	-0.654837
H	5.395659	-0.73831	1.593359
H	3.636664	-0.93751	1.689572
