16
-1626.55
C          1.00000        0.00000        0.00000
C          2.44400        0.00000        0.00000
C          3.63416        0.00000        0.00000
C          5.04016        0.00000        0.00000
C          5.68707       -1.17271       -0.10553
C          5.78361        1.31322        0.06552
N          5.73926        1.89994        1.40244
H          0.60604        1.02088        0.01202
H          0.60600       -0.52081        0.87810
H          0.60597       -0.50003       -0.89009
H          5.15160       -2.11545       -0.16597
H          6.77114       -1.21910       -0.11500
H          5.35136        2.01613       -0.65718
H          6.83355        1.17994       -0.21987
H          4.76310        2.02738        1.66754
H          6.14692        2.83177        1.36771
