13
-1350.11
C          0.91391        0.08030       -0.17557
C          2.24057        0.06385        0.00527
C          3.02413        1.32850       -0.04767
O          2.49581        2.41631       -0.23802
N          4.37281        1.12530        0.13679
C          5.26963        2.14579        0.12575
N          6.52188        1.92622        0.29764
H          0.33283       -0.83499       -0.13853
H          0.37615        1.00640       -0.36495
H          2.75608       -0.86951        0.19293
H          4.71907        0.19246        0.28398
H          4.86558        3.15747       -0.03682
H          6.72079        0.93532        0.43331
