12
-1244.67
C          2.82860       -1.28668       -0.25333
C          2.32907       -0.07666        0.02226
O          2.97957        1.11658        0.15665
C          4.39829        1.11632       -0.00944
C          4.90212        2.48688        0.15687
C          5.31624        3.60692        0.29011
H          2.16201       -2.14092       -0.32636
H          3.88283       -1.47477       -0.41348
H          1.26616        0.08051        0.17721
H          4.65619        0.75613       -1.01251
H          4.85995        0.46570        0.74283
H          5.67676        4.60244        0.40823
