17
-1646.75
C          0.96680        0.21092        0.11687
C          2.47629       -0.00151       -0.01383
C          2.96212       -0.93952        1.09334
O          2.70646       -0.65814       -1.26408
C          3.18056        1.33130       -0.06745
C          3.94365        1.95158        1.07696
O          4.61339        1.25388        0.01563
H          0.58155        0.80846       -0.71766
H          0.71399        0.72749        1.04872
H          0.43041       -0.74429        0.08794
H          2.76369       -0.53291        2.08988
H          4.03714       -1.13356        1.00808
H          2.46896       -1.91574        1.01850
H          3.67349       -0.67044       -1.38942
H          2.77273        1.98600       -0.82894
H          3.93114        1.48816        2.05399
H          4.03983        3.03046        1.09991
