15

C	0.651696	0.149209	-0.012984
C	2.116774	0.007398	0.199301
C	3.035781	0.958455	-0.044059
C	4.449182	0.755635	0.186176
N	5.301563	1.684626	-0.05503
N	6.594163	1.293866	0.231034
C	7.45118	2.205245	-0.002805
H	0.28098	-0.612679	-0.719592
H	0.386614	1.142274	-0.40331
H	0.100262	-0.011349	0.928942
H	2.465031	-0.958828	0.58823
H	2.743481	1.939988	-0.432549
H	4.792996	-0.217841	0.577222
H	8.506474	1.987077	0.195872
H	7.162004	3.194184	-0.39355
