12
-1123.86
O          0.91119       -0.03774        0.10658
S          2.33354       -0.00110       -0.15206
O          2.89671        0.04825       -1.48545
C          3.17218        1.09587        0.95569
C          4.22321       -0.00130        1.23199
C          3.21792       -1.12352        0.89285
H          2.55479        1.36476        1.81855
H          3.55616        2.00197        0.48099
H          5.07953        0.03571        0.54714
H          4.61190       -0.02225        2.25411
H          3.63834       -1.98473        0.36813
H          2.61313       -1.46593        1.73842
