14
-1450.68
C          1.56524       -0.53089        1.10832
C          2.33251       -0.10878        0.09550
C          3.08515        1.19315        0.09384
C          4.59698        0.97281        0.00652
C          5.32020        2.25304       -0.02433
C          5.91476        3.29777       -0.04995
H          1.03874       -1.47873        1.04894
H          1.44199        0.05380        2.01488
H          2.41759       -0.72820       -0.79540
H          2.84658        1.77853        0.99137
H          2.74349        1.78812       -0.76274
H          4.84118        0.39667       -0.89436
H          4.93877        0.38186        0.86504
H          6.44209        4.22265       -0.07241
