15
-1548.03
C          0.95746        0.30876       -0.61179
O          2.25685        0.07013       -0.07545
C          3.03571        1.19799       -0.07962
C          4.37554        1.16827        0.00000
C          5.15892       -0.11200        0.08633
C          5.07854        2.38590        0.00000
C          5.67362        3.41661        0.00000
H          0.41708       -0.64182       -0.62670
H          1.02279        0.68442       -1.63846
H          0.40090        1.01064        0.01808
H          2.47971        2.12710       -0.13016
H          4.52135       -1.00118        0.07582
H          5.74424       -0.13696        1.01152
H          5.84924       -0.19194       -0.76008
H          6.20767        4.33809        0.00080
