13
-1352.8
C          1.01898        0.00728       -0.13741
C          2.51649        0.01278        0.08373
C          3.17086       -1.17397       -0.56430
N          4.04143       -0.87395       -1.47486
N          4.06276        0.49305       -1.53461
C          3.19630        1.13073       -0.65869
O          3.01976        2.32664       -0.52878
H          0.55935        0.90380        0.29166
H          0.55974       -0.87164        0.32676
H          0.76968       -0.01356       -1.20452
H          2.77958        0.03863        1.14501
H          2.92230       -2.20049       -0.26058
H          4.66875        0.97830       -2.18578
