16
-1644.06
C          0.82998        0.41972       -0.13388
C          2.12642        0.22582        0.15205
C          3.26378        1.20387        0.04204
N          3.92564        1.33028        1.35940
C          3.67112        2.70102        1.83891
C          3.11688        3.43704        0.67628
C          2.88441        2.59589       -0.33127
H          0.11204       -0.38382       -0.00235
H          0.44933        1.37238       -0.48556
H          2.41802       -0.76137        0.50788
H          3.98624        0.81579       -0.68597
H          4.92715        1.23871        1.20349
H          4.60028        3.15974        2.19128
H          2.95276        2.68483        2.66454
H          2.90994        4.49664        0.67034
H          2.46754        2.87031       -1.28967
