12
-1248.43
C          1.47484       -0.44539       -0.32685
N          2.72241       -0.24741       -0.06167
N          3.05018        1.09494       -0.20800
C          4.28475        1.29734        0.12367
C          4.88710        2.66451        0.03850
C          5.36409        3.07513        1.35634
N          5.76327        3.40302        2.39761
H          1.05424       -1.46017       -0.25690
H          0.78653        0.36311       -0.62698
H          4.94074        0.47362        0.46160
H          4.14919        3.37475       -0.34755
H          5.72158        2.61862       -0.66850
