17
-1572.79
C          1.67236        1.75220       -1.93445
O          3.05745        1.78336       -1.61375
C          3.27079        1.77671       -0.20005
C          4.76457        1.82387        0.06981
C          5.28821        3.18728       -0.28418
N          5.76136        3.96856        0.63500
N          6.18750        5.15606        0.15066
H          1.57064        1.79050       -3.02232
H          1.15837        2.61754       -1.50492
H          1.21834        0.82486       -1.57252
H          2.85417        0.85229        0.21577
H          2.76220        2.63506        0.25459
H          5.29673        1.09380       -0.54837
H          4.96720        1.61938        1.12592
H          5.23875        3.48200       -1.34944
H          7.03774        5.04259       -0.40703
H          6.45839        5.76200        0.92904
