11

C	0.974397	-0.013473	-0.006901
C	2.459646	0.030706	0.000288
C	3.300978	1.10161	0.00271
O	4.576342	0.636694	0.008644
C	4.448702	-0.697397	0.009824
N	3.23054	-1.119558	0.005474
H	0.543842	0.996889	-0.002211
H	0.599136	-0.557841	0.873368
H	0.606877	-0.545805	-0.897832
H	3.16449	2.179553	0.000897
H	5.367238	-1.282969	0.014719
