17

C	0.920662	0.025044	-0.007856
C	2.437944	0.003922	0.065255
C	2.90974	-0.835337	1.256011
O	2.920668	-0.555524	-1.132788
C	2.991868	1.437837	0.156275
N	4.424066	1.41777	-0.09308
H	0.592555	0.590946	-0.892432
H	0.481043	0.481374	0.892464
H	0.5339	-1.000389	-0.101667
H	2.542096	-0.436363	2.21508
H	4.010235	-0.877767	1.290787
H	2.549067	-1.868048	1.143983
H	3.816293	-0.180094	-1.210263
H	2.698901	1.900778	1.119931
H	2.516943	2.026455	-0.64447
H	4.950861	1.210234	0.751702
H	4.758909	2.311153	-0.440661
