15
-1498.65
O          1.35704       -0.05669        0.50818
C          2.63259       -0.08266       -0.12748
C          2.47559       -0.39494       -1.59433
C          1.32766       -0.59599       -2.25496
C          3.37937        1.19514        0.14280
C          2.70456        2.49068        0.52219
O          3.30842        1.64181        1.50871
H          1.53373        0.21345        1.42839
H          3.19554       -0.90754        0.32624
H          3.40506       -0.48397       -2.15162
H          0.36661       -0.53746       -1.75115
H          1.32545       -0.83489       -3.31256
H          4.34640        1.23560       -0.34231
H          1.62202        2.54986        0.49993
H          3.20833        3.42144        0.29054
