18
-1802.8
C         -1.25202       -0.77254       -0.52004
C         -1.22768        0.76316       -0.53573
C          0.01475        1.08991        0.30823
C         -0.00305       -0.01153        1.35799
C         -0.00071       -1.11481        0.30796
C          1.24134       -0.73460       -0.50274
N          1.20982        0.74603       -0.49632
H         -1.21921       -1.19621       -1.52864
H         -2.16039       -1.13263       -0.02389
H         -2.13501        1.16023       -0.06560
H         -1.16775        1.16578       -1.55255
H          0.03489        2.11315        0.68922
H         -0.90555       -0.00659        1.97825
H          0.88438       -0.01976        2.00040
H          0.01220       -2.13609        0.69304
H          2.15380       -1.08751       -0.00901
H          1.21956       -1.12568       -1.52445
H          2.04177        1.08379       -0.01158
