17
-1654.97
C          1.00781       -0.01584       -0.13248
N          2.45494        0.02330       -0.34572
C          3.04481        1.20978        0.28237
C          4.47147        1.33391       -0.22969
C          5.23694        0.05672        0.05112
C          4.37075       -1.16675       -0.08816
N          3.08090       -1.17946       -0.23619
H          0.53438        0.91728       -0.45555
H          0.76545       -0.19046        0.92067
H          0.55815       -0.82066       -0.72491
H          2.49334        2.11650        0.00870
H          3.03069        1.11924        1.37556
H          4.97568        2.18783        0.23652
H          4.45819        1.52316       -1.31009
H          5.62648        0.05804        1.07469
H          6.09474       -0.04094       -0.62221
H          4.88420       -2.13885       -0.00683
