17
-1728.29
C          0.97084       -0.00087        0.09183
C          2.49139       -0.00427       -0.03595
O          3.04202       -0.00737        1.28198
C          2.99172       -1.23688       -0.82071
C          3.46612       -0.66881       -2.11986
C          3.46896        0.66522       -2.11716
C          2.99762        1.23033       -0.81672
H          0.47949        0.00238       -0.88735
H          0.62873        0.87693        0.65289
H          0.62520       -0.87948        0.64899
H          4.01129       -0.00889        1.19754
H          2.19466       -1.96808       -0.99497
H          3.81796       -1.74749       -0.31177
H          3.77746       -1.28110       -2.95516
H          3.78349        1.27940       -2.95009
H          3.82595        1.73582       -0.30439
H          2.20273        1.96571       -0.98762
