16

C	0.937219	-0.039772	-0.109279
C	2.469082	-0.018226	-0.024989
N	3.145587	-0.820017	-1.03477
C	2.964315	1.360911	-0.064189
C	3.325121	2.521296	-0.10496
C	3.791306	3.86463	-0.169788
C	3.088066	4.939564	0.21706
H	0.476128	0.550469	0.696878
H	0.569904	-1.075365	-0.032411
H	0.602202	0.376271	-1.072512
H	2.75938	-0.432512	0.959652
H	2.924302	-0.458023	-1.961727
H	2.788248	-1.773386	-1.003709
H	4.804392	4.001542	-0.567356
H	2.076071	4.845103	0.618966
H	3.514148	5.942814	0.141014
