14

C	0.845708	-0.0129	-0.235615
C	2.327976	-0.05525	0.041539
C	2.702142	-0.02505	1.503853
C	3.232423	-0.752824	-0.90431
N	3.144732	0.702645	-0.900615
H	0.656496	-0.003392	-1.318025
H	0.39846	0.898621	0.193182
H	0.334123	-0.882782	0.206401
H	3.79371	-0.07769	1.642195
H	2.252026	-0.870885	2.047325
H	2.34145	0.903192	1.97737
H	2.824761	-1.247363	-1.793818
H	4.129252	-1.235201	-0.496105
H	3.95398	1.104619	-0.428177
