15
-1546.37
O          0.53428       -0.05850       -0.10541
C          1.91488       -0.33930        0.12818
C          2.55295       -0.88394       -1.16066
C          2.01223       -2.23904       -1.54342
C          2.75801       -3.34292       -1.67802
C          2.57952        0.90001        0.56326
C          3.11421        1.91662        0.92017
H          0.20341        0.37924        0.69701
H          1.97280       -1.09039        0.92476
H          3.64325       -0.93517       -1.04411
H          2.35067       -0.19884       -1.99426
H          0.94020       -2.29454       -1.72827
H          3.83075       -3.33424       -1.51298
H          2.30257       -4.28619       -1.96478
H          3.58588        2.82008        1.22984
