15

C	0.917873	0.188419	-0.016272
C	2.448995	0.164479	-0.053597
O	2.944406	-0.630819	0.973879
C	2.941891	-0.287967	-1.414251
C	3.824433	-1.270897	-1.579188
C	2.970245	1.583553	0.138653
O	3.696824	1.865417	1.055953
H	0.495521	0.820119	-0.812555
H	0.571854	0.558419	0.960115
H	0.547291	-0.837675	-0.150692
H	3.512819	-0.04449	1.502842
H	2.525051	0.242247	-2.278852
H	4.223287	-1.797246	-0.708213
H	4.153478	-1.579288	-2.574346
H	2.647521	2.34302	-0.613915
