13
-1458.75
C          1.01662        0.04786        0.00476
C          2.49985       -0.04380        0.00241
C          3.24485       -1.15625        0.00042
C          4.63672       -0.68391        0.00049
O          5.62589       -1.38977        0.00014
C          4.63103        0.78606        0.00142
C          3.33988        1.12682        0.00239
H          0.55527       -0.94518       -0.00260
H          0.66179        0.58838       -0.87885
H          0.66424        0.57428        0.89765
H          2.95040       -2.18933       -0.00002
H          5.51009        1.40256        0.00137
H          2.96342        2.13968        0.00286
