17

O	2.402581	-0.616685	-0.892118
C	2.092474	0.275699	-0.148337
C	2.982194	1.428203	0.219713
C	4.362429	1.381911	-0.411904
C	5.208684	2.577667	-0.057301
C	6.303684	3.032366	-0.973728
C	5.060071	3.860686	-0.826146
H	1.07524	0.295949	0.326477
H	3.038534	1.462126	1.324327
H	2.445004	2.356661	-0.055064
H	4.25402	1.311416	-1.507055
H	4.869989	0.450938	-0.108341
H	5.408565	2.688704	1.015488
H	6.442404	2.481721	-1.908821
H	7.232596	3.40489	-0.533912
H	5.125025	4.809339	-0.286583
H	4.354596	3.87223	-1.663676
