14

C	0.991146	-0.04191	0.016323
C	2.466123	0.098354	-0.012251
C	3.293107	1.18485	-0.064382
C	4.636306	0.676888	-0.064099
N	5.79181	1.441439	-0.173384
C	4.50949	-0.685129	-0.009644
O	3.192233	-1.032055	0.015803
H	0.515911	0.946777	-0.01243
H	0.656946	-0.561479	0.929054
H	0.62946	-0.626491	-0.845025
H	2.986431	2.228098	-0.108654
H	5.728397	2.337046	0.296417
H	6.634461	0.956473	0.112536
H	5.22874	-1.49904	0.000995
