9
-1053.25
N          1.00934       -0.00547       -0.00000
C          2.36664       -0.07634       -0.00000
O          2.97903       -1.13274       -0.00000
C          3.07115        1.17638       -0.00000
C          3.67248        2.21571       -0.00000
C          4.44023        3.54094       -0.00000
N          5.00897        4.55209       -0.00000
H          0.50570        0.86934        0.00000
H          0.49163       -0.87350       -0.00000
