14

C	1.852493	-1.899496	0.296455
S	1.901015	-0.23527	-0.33536
O	2.293883	0.638505	0.755091
O	2.603529	-0.279081	-1.606453
N	0.309122	0.132004	-0.656444
C	-0.305758	-0.075991	-1.885215
C	-1.591254	0.168535	-2.155444
H	1.420342	-2.559046	-0.466542
H	1.261176	-1.909561	1.220089
H	2.893274	-2.182634	0.503595
H	-0.17352	0.61542	0.094443
H	0.383374	-0.454843	-2.646126
H	-2.282324	0.559973	-1.404041
H	-1.974763	-0.009254	-3.160127
