11
-1150.82
C          0.96496       -0.11269        0.00516
N          2.39024        0.09535       -0.00222
C          3.02365        1.30756        0.00096
O          4.24614        1.38989       -0.00245
C          2.22513        2.51219        0.00875
C          1.56660        3.51807        0.01524
H          0.76896       -1.18732       -0.00557
H          0.52435        0.35377       -0.87995
H          0.53731        0.33362        0.90689
H          3.01560       -0.70023       -0.00483
H          0.99419        4.41572        0.02096
