17

C	2.262703	-0.466483	-1.510716
C	2.407459	0.069645	-0.095147
C	3.274845	1.312169	-0.012277
C	2.723706	2.615349	-0.652927
C	3.089008	3.338608	0.638374
O	3.193912	4.490448	0.941054
C	3.374859	2.026886	1.359995
H	1.622311	-1.360803	-1.542783
H	3.24204	-0.741027	-1.934028
H	1.816059	0.287602	-2.178941
H	2.832697	-0.709048	0.561927
H	1.410865	0.30538	0.321995
H	4.281388	1.09188	-0.404975
H	1.62933	2.592451	-0.799669
H	3.188875	2.999509	-1.572972
H	4.320942	1.976258	1.920579
H	2.550171	1.760256	2.043809
