16

C	0.759561	0.040134	0.025856
C	2.229761	-0.057927	0.262826
C	3.112925	0.876791	-0.111164
N	4.484239	0.804975	0.099458
C	5.353514	1.7927	-0.299788
C	6.800046	1.55189	0.063426
O	4.982305	2.793882	-0.874054
H	0.38919	-0.803468	-0.581719
H	0.496834	0.971454	-0.498132
H	0.193285	0.016044	0.972251
H	2.593684	-0.957977	0.776269
H	2.817006	1.795174	-0.626169
H	4.856252	-0.010668	0.569315
H	7.047024	0.491062	0.212924
H	7.029903	2.097675	0.992001
H	7.432381	1.970119	-0.729859
