15
-1518.24
N          1.61290        0.49001       -2.32960
C          2.58809        0.93950       -1.88859
C          3.82886        1.53492       -1.35166
N          4.97847        0.62579       -1.47094
C          6.21030        1.20524       -0.93080
C          6.58046        0.93514        0.49974
C          7.35238        0.28295       -0.61019
H          3.67125        1.79278       -0.29800
H          4.03791        2.46608       -1.89171
H          5.10083        0.36756       -2.45128
H          6.49047        2.17505       -1.33933
H          5.92988        0.30510        1.09575
H          7.06608        1.72614        1.05878
H          8.35912        0.63445       -0.80354
H          7.21852       -0.78245       -0.75928
