13

C	2.987148	-1.274259	0.239724
C	2.60661	-0.137463	-0.644202
O	1.867288	-0.129281	-1.581368
S	3.453857	1.43979	-0.123257
C	2.854057	2.626891	-1.304806
O	2.931259	1.77447	1.201689
O	4.887699	1.238028	-0.329885
H	4.081233	-1.39553	0.209145
H	2.479746	-2.191799	-0.081471
H	2.720481	-1.017868	1.277065
H	3.162633	2.319081	-2.310951
H	3.333045	3.573099	-1.019311
H	1.763076	2.697859	-1.22115
