15

O	1.012977	0.512082	0.991004
C	1.924894	0.4021	-0.068385
C	3.084127	1.314194	0.194699
C	3.812068	1.970592	-0.91545
C	2.905758	2.804026	-0.035537
C	3.546954	3.711276	0.943255
O	4.63563	3.517885	1.425096
H	0.313872	-0.135149	0.859769
H	1.465694	0.676051	-1.041928
H	2.309691	-0.632656	-0.17762
H	3.6748	1.072717	1.085523
H	3.479212	1.794416	-1.942272
H	4.883674	2.143201	-0.782827
H	1.94332	3.130513	-0.438793
H	2.945149	4.611273	1.229888
