20

C	0.977045	-0.451411	-0.181299
C	2.482696	-0.637524	-0.089045
C	3.247439	0.676402	-0.008469
C	4.752123	0.48918	0.020162
O	5.164542	-0.167914	-1.144808
C	5.514085	1.808602	0.131301
N	6.929172	1.538288	-0.065197
H	0.450677	-1.416139	-0.238666
H	0.701109	0.130361	-1.07616
H	0.582819	0.090299	0.694644
H	2.854322	-1.197634	-0.962418
H	2.730615	-1.254123	0.793631
H	2.93763	1.242746	0.888933
H	2.997183	1.302918	-0.883639
H	5.006507	-0.122209	0.919578
H	6.104107	0.076211	-1.223429
H	5.266056	2.315118	1.085983
H	5.17504	2.467395	-0.685767
H	7.351087	1.159128	0.780447
H	7.447134	2.377267	-0.309302
