15
-1512.97
C          1.45580       -0.12735        1.33789
C          2.70224        0.45432        0.68821
O          2.39012        1.02358       -0.58484
C          2.40473        0.22552       -1.69091
C          2.67190       -1.08074       -1.79615
C          3.19048        1.61128        1.53361
O          4.07960        1.50987        2.37723
H          1.67524       -0.50795        2.34089
H          1.04058       -0.94451        0.73993
H          0.66907        0.63086        1.42813
H          3.52070       -0.27141        0.62677
H          2.15324        0.82238       -2.56271
H          2.92493       -1.71172       -0.95373
H          2.64115       -1.55979       -2.77051
H          2.63826        2.55935        1.41445
