14
-1441.52
C          1.94548       -0.21953        0.20237
N          1.05244       -1.32965        0.58975
C          0.09190       -0.95238       -0.45829
C         -1.19287       -0.52252        0.09827
C         -1.15751        0.80305        0.27084
O          0.00903        1.47748       -0.07240
C          0.81938        0.40034       -0.64194
H          2.81006       -0.54156       -0.38852
H          2.29937        0.38885        1.03997
H          1.45595       -2.25562        0.49047
H          0.05527       -1.60679       -1.33375
H         -2.02208       -1.16899        0.33056
H         -1.92989        1.44015        0.67125
H          1.10750        0.64126       -1.67183
