19

C	0.943018	0.031322	-0.216685
C	2.456889	-0.079773	-0.12986
C	3.138021	1.260804	0.149512
C	4.634481	1.170702	0.228538
C	5.420697	0.875633	-1.018759
N	5.180184	1.315403	1.378952
N	6.519557	1.164164	1.497412
H	0.473564	-0.945547	-0.408238
H	0.637909	0.713029	-1.02744
H	0.518655	0.426792	0.720272
H	2.84964	-0.509574	-1.068465
H	2.738959	-0.788442	0.667447
H	2.776003	1.667673	1.106279
H	2.852289	1.980977	-0.640461
H	4.770292	0.76832	-1.897078
H	6.007535	-0.052638	-0.904467
H	6.142617	1.683391	-1.242536
H	6.856997	1.607616	2.34346
H	7.086302	1.419454	0.687107
