15

C	0.921393	-0.041706	-0.330361
C	2.148397	0.717753	0.073176
O	3.304002	-0.027232	0.375329
C	3.345516	0.7745	-0.787558
C	4.244296	1.978566	-0.78359
C	4.836839	2.38126	0.539143
O	4.465748	2.558874	-1.819512
H	0.206028	0.621812	-0.839903
H	0.423713	-0.462301	0.556917
H	1.181369	-0.869598	-1.005109
H	1.975192	1.570248	0.748448
H	3.314867	0.248336	-1.75137
H	4.058061	2.524431	1.304319
H	5.415127	3.304376	0.41191
H	5.484221	1.571073	0.909692
