12

C	0.275381	-1.400227	0.139129
N	-0.9656	-0.808513	-0.32184
N	-1.293602	0.448558	-0.019587
C	-0.325713	1.28313	0.176392
C	1.063362	0.900979	-0.022823
C	1.370152	-0.403172	-0.122553
H	0.438673	-2.339157	-0.412088
H	0.238046	-1.666023	1.223254
H	-1.77302	-1.416474	-0.367163
H	-0.609002	2.318956	0.381581
H	1.819283	1.679511	-0.155768
H	2.384351	-0.749108	-0.338564
