17

O	1.968012	-0.214994	-1.308254
C	2.366216	0.133515	-0.010092
C	3.093398	1.458952	-0.087454
C	2.246982	2.638386	-0.552509
C	2.958308	3.802249	0.12748
C	3.348466	3.176099	1.462515
O	3.54812	1.799324	1.209423
H	1.532294	-1.070733	-1.276627
H	3.049582	-0.612755	0.440602
H	1.508	0.252633	0.683591
H	3.959442	1.33348	-0.769653
H	1.219068	2.534773	-0.164799
H	2.187915	2.714872	-1.646579
H	3.85842	4.085064	-0.44239
H	2.335139	4.701595	0.239435
H	4.269268	3.608772	1.888342
H	2.543039	3.305738	2.21181
