21
-2050.36
C          1.74173       -0.47395        1.21406
C          2.63381       -0.17618        0.01902
C          3.01249        1.27551       -0.03658
C          4.27364        1.72586        0.05148
C          4.65224        3.18485       -0.01862
C          5.31800        3.62247        1.28519
C          5.58150        3.43204       -1.20639
H          1.45555       -1.53024        1.21711
H          0.82522        0.12419        1.18451
H          2.25877       -0.26048        2.15525
H          2.10416       -0.43579       -0.90497
H          3.52487       -0.81371        0.06567
H          2.19555        1.98325       -0.16888
H          5.08869        1.01455        0.17973
H          3.75210        3.79664       -0.16064
H          6.24091        3.06234        1.47514
H          4.64852        3.46750        2.13893
H          5.57276        4.68750        1.25103
H          6.51432        2.86392       -1.11387
H          5.84106        4.49375       -1.28062
H          5.10169        3.13979       -2.14731
