19
-1901.11
C          2.61228       -0.92114        1.12303
C          3.02633       -0.21955       -0.16117
C          3.28717        1.23973        0.06944
C          4.46567        1.84072       -0.16203
C          4.73828        3.26644        0.03673
C          4.96716        3.77301        1.43661
C          6.11589        3.69073        0.47413
H          2.41008       -1.97895        0.92712
H          1.70399       -0.47632        1.54298
H          3.40261       -0.86142        1.87849
H          2.22656       -0.32029       -0.90443
H          3.91131       -0.71788       -0.57480
H          2.45398        1.83429        0.43686
H          5.29062        1.24088       -0.54259
H          4.21893        3.92550       -0.65290
H          4.94473        3.06775        2.25994
H          4.58207        4.75496        1.68709
H          6.50905        4.61759        0.07222
H          6.87068        2.93376        0.65349
