20

C	0.790407	0.819398	-0.129932
N	2.200701	0.555758	-0.006863
C	3.047988	1.628016	-0.467932
C	4.519129	1.283448	-0.310258
C	5.454261	2.418354	-0.721665
C	6.899064	2.072962	-0.545801
C	7.818753	2.067264	-1.511502
H	0.209506	-0.050623	0.212604
H	0.452136	1.070863	-1.160337
H	0.509909	1.669931	0.513999
H	2.441491	-0.305797	-0.491561
H	2.820167	2.529249	0.131047
H	2.849172	1.918733	-1.527099
H	4.754273	0.387414	-0.912845
H	4.700041	1.000655	0.740516
H	5.218488	3.308018	-0.108407
H	5.263828	2.704788	-1.770033
H	7.199216	1.788189	0.47179
H	7.565147	2.340591	-2.54153
H	8.858176	1.793336	-1.311412
