17
-1706.13
C          2.71441       -1.11554        1.11530
C          2.41234       -0.12880        0.02195
C          1.52817       -0.40359       -0.95188
C          3.12398        1.14632        0.06200
C          2.45748        2.31335        0.10865
C          4.63189        1.09982        0.01136
O          5.15883        0.89177        1.31588
H          3.74626       -1.47612        1.04597
H          2.05784       -1.99150        1.06436
H          2.56801       -0.65645        2.09973
H          1.00021       -1.35172       -0.98560
H          1.31535        0.30263       -1.74864
H          1.37183        2.34828        0.14222
H          2.97937        3.26464        0.12570
H          5.04683        2.03788       -0.37366
H          4.98638        0.29703       -0.64389
H          4.65511        1.47018        1.91413
