18

C	0.990116	-0.080089	0.226838
C	2.458935	-0.049336	-0.171658
C	2.708803	-0.830859	-1.461704
N	2.365669	-2.231672	-1.301774
C	2.958252	1.398956	-0.294188
C	4.394058	1.533821	-0.508709
C	5.58819	1.639854	-0.685233
H	0.828984	0.365418	1.22085
H	0.627258	-1.117043	0.239398
H	0.377919	0.482929	-0.497837
H	3.050962	-0.533633	0.628023
H	3.755082	-0.652507	-1.784706
H	2.064704	-0.404916	-2.252701
H	3.048922	-2.693891	-0.703827
H	2.395424	-2.713997	-2.196525
H	2.685936	1.95489	0.619776
H	2.422174	1.898703	-1.121822
H	6.645982	1.740413	-0.843161
