14

C	0.927861	0.093697	-0.005934
C	2.414738	-0.0121	-0.001431
N	3.225399	1.000838	0.003091
C	4.541006	0.612168	0.006477
C	5.611924	1.650834	0.011512
C	4.735469	-0.744172	0.004829
S	3.221	-1.559867	-0.003298
H	0.657671	1.157177	0.001495
H	0.484356	-0.392124	0.876891
H	0.491142	-0.37757	-0.900033
H	6.612404	1.198364	0.021264
H	5.511348	2.302271	0.893735
H	5.526318	2.295986	-0.876995
H	5.677925	-1.289332	0.007426
