17

C	0.923051	-0.037412	0.568308
C	2.192682	0.003049	-0.258293
C	3.229701	1.044826	0.213136
N	3.909583	-0.009636	0.953988
C	5.333616	0.005167	1.083123
C	3.256591	-1.036862	0.153421
H	0.319871	-0.92856	0.330675
H	0.297528	0.850731	0.383252
H	1.166867	-0.066201	1.642075
H	1.961522	0.031058	-1.333998
H	2.863871	1.893045	0.819989
H	3.830946	1.44816	-0.630649
H	5.676608	-0.894821	1.618635
H	5.653183	0.880803	1.67097
H	5.864326	0.040435	0.102976
H	3.86697	-1.376458	-0.711681
H	2.913003	-1.927705	0.710023
