14
-1458.09
C          0.99359       -0.04041       -0.01184
C          2.52000        0.00000        0.00000
N          3.05038       -0.70767       -1.16177
C          3.00202        1.36117        0.00000
C          3.39930        2.48307        0.00000
C          3.90956        3.92639        0.00003
C          4.31102        5.05930        0.00006
H          0.58361        0.47226        0.86613
H          0.62666       -1.07280        0.00521
H          0.58024        0.45088       -0.90101
H          2.87429       -0.51331        0.90099
H          2.73094       -0.24260       -2.01041
H          2.66262       -1.64825       -1.19146
H          4.66840        6.06100       -0.00032
