16
-1561.71
C          0.89914       -0.10610        0.35336
C          2.40995       -0.28235        0.29817
C          3.13795        1.03182        0.01152
O          2.85686        1.99713        1.02842
C          4.65919        0.83500       -0.10618
N          5.36038        2.00727       -0.19302
O          5.22738       -0.24911       -0.14429
H          0.41223       -1.07391        0.50999
H          0.51923        0.31725       -0.58210
H          0.60513        0.55440        1.17525
H          2.65664       -1.02078       -0.47348
H          2.74607       -0.69426        1.25738
H          2.79075        1.44709       -0.94195
H          3.09371        1.58463        1.87876
H          4.90447        2.88354        0.03320
H          6.36928        1.96101       -0.20478
