15
-1446.76
O          0.95831        0.20369       -0.04663
C          2.32739       -0.13997        0.12614
C          3.22135        1.08602       -0.10609
N          2.77203        2.03994       -0.86862
N          4.45873        1.06104        0.52412
C          5.59183        1.63721       -0.21879
C          5.01388        2.35640        0.95102
H          0.74969        0.84960        0.65259
H          2.59079       -0.90652       -0.60838
H          2.47738       -0.53964        1.13321
H          1.83495        1.75766       -1.20052
H          5.36566        1.98750       -1.21693
H          6.50680        1.07845       -0.08771
H          5.52502        2.30221        1.90070
H          4.38269        3.21756        0.77814
