18
-1788.8
N          1.04889        0.05438        0.42182
C          2.47849        0.01124        0.08905
C          2.83668       -1.30633       -0.62981
C          2.59055       -1.02393       -2.08754
C          3.63192       -0.37965       -2.96059
C          2.59059        0.46438       -2.27810
C          2.83679        1.10494       -0.93901
H          0.83178        0.93670        0.88140
H          0.83089       -0.68486        1.08802
H          3.05147        0.12984        1.01442
H          2.24258       -2.15470       -0.27291
H          3.89403       -1.54918       -0.46775
H          1.78233       -1.59397       -2.52287
H          4.65519       -0.33433       -2.60649
H          3.54532       -0.51709       -4.03271
H          1.78256        0.90610       -2.84338
H          3.89426        1.38088       -0.84327
H          2.24318        2.01626       -0.80732
