15
-1499.33
C         -1.01430        0.00006       -1.18317
C         -0.56335        1.02674       -0.10485
C         -1.11805       -0.00020        0.92242
C         -0.56326       -1.02654       -0.10483
O          0.86980       -1.20764       -0.02485
C          1.63699       -0.00001       -0.12411
O          0.86993        1.20753       -0.02474
H         -2.08525        0.00004       -1.41419
H         -0.44407        0.00002       -2.11573
H         -1.07855        1.99059       -0.12734
H         -0.63554       -0.00117        1.90348
H         -2.20573       -0.00007        1.04863
H         -1.07869       -1.99080       -0.12750
H          2.15224       -0.00003       -1.08918
H          2.38520       -0.00011        0.67377
