20

C	0.705052	0.526534	0.419504
C	2.17524	0.658953	0.641156
C	3.031466	1.278677	-0.177368
C	4.503748	1.412275	0.039755
C	4.992419	2.861276	0.157692
C	4.39433	3.563799	1.374606
N	6.447189	2.864295	0.123405
H	0.401459	-0.532637	0.367211
H	0.387563	1.016961	-0.512966
H	0.132944	0.972629	1.250636
H	2.573644	0.200033	1.556639
H	2.637419	1.742847	-1.092995
H	5.054514	0.958656	-0.802361
H	4.801879	0.856326	0.947754
H	4.651642	3.396193	-0.749256
H	4.708072	3.054504	2.302321
H	3.293359	3.562063	1.349414
H	4.736231	4.60921	1.43328
H	6.806873	2.396563	0.95631
H	6.795749	3.820152	0.173112
