15
-1544.2
C          3.03848       -1.00417       -2.34218
C          3.31233       -0.53178       -1.27437
C          3.64572        0.04451        0.03846
C          4.43816        1.33576       -0.11906
C          3.68878        2.57659       -0.62960
C          4.21536        3.24565        0.63546
O          4.65631        1.97536        1.17255
H          2.79409       -1.42817       -3.28941
H          4.23533       -0.67950        0.61258
H          2.72482        0.22574        0.60513
H          5.40518        1.17560       -0.61494
H          2.59945        2.48753       -0.66887
H          4.06261        2.99405       -1.56751
H          5.05791        3.92861        0.49197
H          3.45633        3.71395        1.26746
