15
-1480.64
C          0.90809       -0.04497        0.14102
C          2.40455        0.01286       -0.06107
N          2.77773        0.10460       -1.49322
C          3.20579        1.07144        0.75669
N          4.12972       -0.00942        1.13729
C          3.26441       -1.00170        0.76926
O          3.25546       -2.16606        1.08467
H          0.65013       -0.08913        1.20476
H          0.47892       -0.93135       -0.33906
H          0.41658        0.83884       -0.28039
H          3.78403        0.02213       -1.64692
H          2.48886        0.96928       -1.94580
H          2.69341        1.49298        1.62808
H          3.69645        1.87141        0.19506
H          4.63556       -0.14011        2.00294
