15

C	2.942186	2.662879	-3.088994
C	2.096466	2.587107	-2.059646
O	2.362444	2.78577	-0.744983
C	3.677913	2.890389	-0.348864
O	4.179219	4.145166	-0.722586
C	5.449237	4.431248	-0.387487
C	6.321689	3.661163	0.273816
H	2.569372	2.437311	-4.088641
H	3.984353	2.967953	-2.98485
H	1.040996	2.332063	-2.189194
H	4.295239	2.088963	-0.806417
H	3.690108	2.790768	0.750442
H	5.714892	5.433618	-0.735212
H	6.093741	2.658262	0.638038
H	7.321085	4.051181	0.468428
