13
-1370.32
O          1.25406        0.00404        1.00879
C          2.52338       -0.00660        0.32902
C          2.56524        0.69292       -1.00195
O          3.86878        1.12776       -1.53147
C          4.49824       -0.06205       -1.89200
C          3.82436       -1.16571       -1.57209
C          2.55466       -0.83135       -0.93174
H          0.95377        0.91530        1.17369
H          3.41641        0.02673        0.94527
H          1.67639        1.20060       -1.35869
H          5.45603        0.05066       -2.37044
H          4.15239       -2.17748       -1.76296
H          1.66593       -1.35198       -1.25592
