14
-1474.1
C          0.99699       -0.58074       -0.06437
C          2.34241        0.11792        0.02651
C          2.21480        1.62684       -0.11460
O          1.16052        2.21784        0.12599
C          3.43002        2.38559       -0.58732
C          4.55182        2.19764        0.32761
N          5.45071        2.02758        1.04062
H          1.12513       -1.66565        0.00085
H          0.50039       -0.35023       -1.01304
H          0.33171       -0.26650        0.74649
H          2.98891       -0.25483       -0.77487
H          2.81547       -0.10219        0.98887
H          3.17398        3.44784       -0.65979
H          3.67879        2.04079       -1.59624
