10
-1153.3
O          0.97095        0.00014       -0.27025
C          2.18008       -0.05103       -0.07768
O          2.91526        1.12030       -0.02873
C          4.29227        1.07515        0.19073
C          4.96912       -0.05382        0.36135
C          4.11759       -1.23704        0.29399
N          2.84748       -1.24205        0.09438
H          4.71442        2.07019        0.20082
H          6.03143       -0.12778        0.53297
H          4.63821       -2.19962        0.43008
