18
-1788.36
N          1.05042        0.13267        0.15075
C          2.47990       -0.06609       -0.04091
C          2.80772       -1.50183       -0.48399
C          2.69814       -1.48623       -2.01346
C          3.14517       -0.10173       -2.38803
C          2.17687        1.04348       -2.44891
C          2.96714        0.78616       -1.18572
H          0.88179        1.10510        0.40301
H          0.73148       -0.43181        0.93556
H          3.01075        0.17724        0.88570
H          2.17055       -2.26415       -0.02411
H          3.84477       -1.72977       -0.20500
H          3.33406       -2.25540       -2.46245
H          1.66533       -1.66177       -2.33388
H          4.07627       -0.05816       -2.93383
H          2.44884        1.90624       -3.04600
H          1.11533        0.82385       -2.45923
H          3.77331        1.45556       -0.91940
