18

C	0.971648	-0.069128	-0.050123
C	2.503105	-0.019087	0.04615
C	2.970865	-0.725234	1.316671
C	3.112401	-0.698452	-1.188739
C	2.922577	1.427512	0.034958
N	3.568551	1.9489	0.995903
O	3.848092	3.273843	0.78629
H	0.606623	0.448718	-0.951685
H	0.504254	0.404381	0.826975
H	0.625364	-1.113729	-0.100504
H	2.550791	-0.247299	2.213134
H	4.06605	-0.689695	1.409562
H	2.653343	-1.779323	1.299854
H	2.799869	-0.197487	-2.119046
H	2.784935	-1.748558	-1.248231
H	4.21256	-0.6841	-1.145901
H	2.650643	2.039464	-0.842415
H	4.328	3.526533	1.581557
