12

C	1.003009	-0.043803	0.006126
C	2.474739	0.109643	-0.016157
C	3.288111	1.188617	-0.027882
C	4.662082	0.692581	-0.034474
O	5.736414	1.242769	0.044803
N	4.494752	-0.692588	-0.182595
O	3.168948	-1.04749	-0.050722
H	0.519452	0.937137	0.080557
H	0.693086	-0.664294	0.860947
H	0.656114	-0.544489	-0.911095
H	3.001137	2.235542	0.008082
H	5.114795	-1.368147	0.25241
