15
-1539.33
C          0.99680       -0.00071        0.19731
C          2.43461        0.11655       -0.18700
C          3.16242        1.23833       -0.12336
C          4.62460        1.36432       -0.52273
N          4.92825        2.84110       -0.45805
C          3.80958        3.35414       -0.02800
N          2.79310        2.49946        0.22609
H          0.81057       -0.98775        0.63442
H          0.35931        0.10714       -0.68478
H          0.70493        0.74647        0.94086
H          2.91135       -0.79550       -0.53847
H          4.79816        1.00736       -1.54287
H          5.27726        0.83803        0.18257
H          3.62255        4.42482        0.13762
H          1.83146        2.76264        0.37483
