14

O	1.433631	-0.348367	-0.959736
C	2.447422	0.599372	-1.140936
C	2.279027	1.658558	-0.089448
C	2.931656	1.548664	1.251781
N	3.432951	2.442914	0.25117
C	3.483274	3.815188	0.367078
O	3.784385	4.411157	1.367353
H	1.476638	-0.985829	-1.67797
H	2.398087	1.082359	-2.138671
H	3.465062	0.171027	-1.040143
H	1.307854	2.17173	-0.113821
H	3.549486	0.671877	1.473578
H	2.426806	1.998111	2.114133
H	3.258162	4.319727	-0.603559
