19
-1841.79
C          3.01167       -1.03314       -0.70815
C          2.38650        0.14051        0.02917
C          3.32113        1.31097        0.09401
C          3.44916        2.33235       -1.01691
C          2.66285        2.25851       -2.28131
C          2.76227        2.70017        0.27283
O          3.49376        3.56446        1.15237
H          2.32314       -1.88336       -0.72379
H          3.93887       -1.35243       -0.22159
H          3.25108       -0.76717       -1.74213
H          2.14393       -0.16971        1.05279
H          1.43728        0.40686       -0.44884
H          4.22043        1.06015        0.64731
H          4.43905        2.73420       -1.20356
H          1.61744        1.98213       -2.11525
H          3.10907        1.52605       -2.96085
H          2.67235        3.23220       -2.78200
H          1.68297        2.81953        0.25868
H          4.45309        3.41655        1.10318
