16
-1564.47
C          1.23605       -1.10558        0.28134
C          2.26779       -0.30354       -0.50250
O          2.39077       -0.86750       -1.81334
C          1.86928        1.16582       -0.61129
C          3.02426        2.02854       -1.07002
N          3.59143        1.66443       -2.25411
O          3.39637        3.02828       -0.46647
H          1.13943       -0.73746        1.30783
H          1.51888       -2.16387        0.31442
H          0.25181       -1.05812       -0.20002
H          3.24483       -0.39977       -0.01647
H          1.49412       -1.05884       -2.14520
H          1.54970        1.54487        0.36713
H          1.04453        1.30480       -1.31969
H          3.46473        0.71411       -2.59549
H          4.41478        2.17084       -2.55024
