15

N	1.408884	1.684747	0.814465
N	2.709159	1.876568	0.440168
C	3.538196	0.928285	0.567144
O	4.842594	1.054835	0.289092
C	5.277341	2.320051	-0.15197
C	6.741469	2.295148	-0.431667
C	7.541083	1.239424	-0.289067
H	0.810729	2.314045	0.290357
H	1.0736	0.724696	0.706973
H	3.298829	-0.089088	0.918413
H	5.034611	3.087997	0.607184
H	4.71244	2.6193	-1.055899
H	7.148071	3.250559	-0.784351
H	7.148064	0.282158	0.061646
H	8.607171	1.303276	-0.520097
