13

C	2.895577	-1.121988	0.492487
N	2.308256	0.083981	-0.032773
C	2.999171	1.271058	-0.015873
C	2.463272	2.534687	-0.1909
S	3.724153	3.703926	-0.159689
C	4.859311	2.439622	0.095138
N	4.357301	1.243353	0.15119
H	2.265872	-1.979536	0.215334
H	3.019319	-1.115437	1.59302
H	3.891021	-1.270159	0.05359
H	1.308212	0.175537	0.080566
H	1.424309	2.815597	-0.347917
H	5.925065	2.654048	0.205117
