17
-1619.42
C          3.09176       -1.17304       -0.45396
C          2.46555        0.06673        0.16388
C          3.45029        1.19108        0.26067
N          3.68156        2.07152       -0.88341
C          2.97406        2.62443        0.27009
C          3.65855        3.63934        1.11762
H          2.36149       -1.98688       -0.49881
H          3.94952       -1.51483        0.13503
H          3.44294       -0.97095       -1.47079
H          2.10687       -0.17440        1.17099
H          1.58856        0.35971       -0.42532
H          4.32503        0.93714        0.85062
H          3.03193        1.86858       -1.64496
H          1.92027        2.83522        0.13837
H          4.73123        3.44256        1.21928
H          3.21905        3.64704        2.11985
H          3.53537        4.63726        0.68538
