17
-1626.31
C          1.11958        0.66746       -0.87081
N          2.23286        0.45647       -0.24979
N          3.07020        1.52404       -0.28396
C          4.42971        1.26892        0.19663
C          5.22989        2.52491        0.02776
C          5.40738        3.49247        1.17263
C          6.56944        2.65952        0.70860
H          0.36084       -0.12896       -0.90810
H          0.87540        1.61293       -1.38615
H          2.68817        2.30745        0.25257
H          4.88924        0.46981       -0.39255
H          4.40573        0.95082        1.24422
H          5.16054        2.92350       -0.97977
H          4.96875        3.25175        2.13461
H          5.42118        4.55274        0.94500
H          7.36555        3.15401        0.16274
H          6.90855        1.85303        1.34967
