20

C	1.083084	-0.008293	-0.245127
C	2.57509	0.034315	0.017728
C	3.045347	1.152614	0.946412
C	4.441174	0.712416	1.440419
C	4.556856	-0.783165	1.089404
C	3.144469	-1.223861	0.699418
N	3.129061	-2.466423	-0.037048
H	0.817283	-0.861087	-0.891446
H	0.72741	0.906108	-0.745511
H	0.520888	-0.112333	0.698111
H	3.106536	0.133523	-0.950568
H	2.345174	1.224322	1.796795
H	3.049113	2.140607	0.46071
H	5.239007	1.294011	0.954776
H	4.549545	0.885878	2.521765
H	5.213934	-0.925697	0.213511
H	4.975508	-1.400492	1.8975
H	2.558542	-1.38415	1.626589
H	3.591383	-2.345151	-0.938058
H	2.174708	-2.758361	-0.236313
