14

C	2.752885	-1.053937	-0.316713
O	3.8874	-0.394832	0.190726
N	3.802274	0.940567	-0.038338
C	4.824587	1.575901	0.376271
C	4.872257	3.040361	0.2227
C	5.579143	3.879495	1.200024
O	6.148253	3.592076	-0.051902
H	2.890735	-2.117932	-0.081711
H	2.667204	-0.92641	-1.409027
H	1.828551	-0.689263	0.161176
H	5.676959	1.062274	0.847249
H	4.031772	3.470045	-0.337648
H	6.06165	3.409985	2.068174
H	5.2433	4.91344	1.354838
