15
-1406.71
C          2.21387       -0.49288       -1.34189
N          2.32434        0.08864       -0.00817
C          3.18684        1.28010       -0.06523
C          2.38018        2.52988       -0.44917
O          2.82475        3.21832        0.75333
C          3.25165        1.94769        1.31765
H          1.55107       -1.36337       -1.30518
H          3.18818       -0.82674       -1.71435
H          1.78323        0.21683       -2.05583
H          2.66608       -0.62900        0.63144
H          4.15762        1.16451       -0.55685
H          1.28838        2.44509       -0.46632
H          2.72391        3.03963       -1.35360
H          4.25412        2.01717        1.74958
H          2.54550        1.60553        2.08188
