13

C	0.923869	-0.082992	0.18405
C	2.399787	0.030815	-0.17606
C	2.891853	1.44089	-0.136703
N	2.64196	2.289826	0.823684
C	3.253411	3.472006	0.545579
N	3.953533	3.607556	-0.551585
S	3.881902	2.1604	-1.358752
H	0.611089	-1.136716	0.21112
H	0.295428	0.444008	-0.549226
H	0.736734	0.365024	1.169881
H	2.599675	-0.401616	-1.169271
H	3.005921	-0.550362	0.540583
H	3.161669	4.31525	1.236469
