17
-1660.65
N          2.24565       -0.40622       -1.47748
C          2.40228        0.13577       -0.11951
C          3.42677        1.29529       -0.03672
N          3.64129        1.70855        1.37530
C          3.14270        3.09176        1.50294
C          2.81700        3.53628        0.12666
C          2.97166        2.53175       -0.73659
H          1.57207       -1.17039       -1.44682
H          3.12852       -0.81703       -1.77706
H          2.72183       -0.68130        0.53874
H          1.42000        0.47085        0.23569
H          4.38596        0.96685       -0.45659
H          4.64740        1.73292        1.53425
H          3.90695        3.73313        1.95291
H          2.25099        3.11032        2.13681
H          2.47498        4.52843       -0.12558
H          2.77485        2.57822       -1.79736
