15
-1478.34
C          1.29098        2.87780        1.42422
C          2.54909        2.16670        1.03382
N          3.59327        2.83362        0.66438
N          4.67237        2.07187        0.33723
C          5.86477        2.61660       -0.07473
C          5.93345        4.11839       -0.14969
O          6.81610        1.89575       -0.37314
H          1.04041        2.61192        2.45417
H          0.48061        2.54673        0.77012
H          1.41078        3.96076        1.34263
H          2.52970        1.06332        1.08124
H          4.63146        1.05947        0.38219
H          5.26767        4.48214       -0.93631
H          6.95771        4.42266       -0.38727
H          5.65967        4.56102        0.81176
