18

C	0.739048	-0.033658	-0.567508
C	2.171015	-0.000427	-0.082611
C	3.212479	-0.742875	-0.871225
C	3.179685	0.759114	-0.896794
N	2.444835	0.024281	1.33059
C	1.596298	0.728207	2.255077
C	1.675162	-0.758172	2.261115
H	0.710671	-0.083139	-1.665522
H	0.183054	0.869645	-0.268382
H	0.196423	-0.914633	-0.188239
H	2.895045	-1.289493	-1.763727
H	4.00835	-1.219543	-0.294305
H	3.953656	1.290415	-0.338205
H	2.836865	1.258618	-1.807371
H	0.659854	1.169966	1.892393
H	2.107283	1.320995	3.022786
H	2.24643	-1.287225	3.03282
H	0.790666	-1.299845	1.902819
