11

C	0.986308	-0.053712	-0.003719
C	2.510692	-0.009261	-0.041637
O	3.030212	-0.71294	-1.144117
C	3.007145	1.374954	0.008559
C	3.396628	2.521932	0.01671
H	0.592671	0.422151	0.906456
H	0.653531	-1.10081	-0.035318
H	0.56536	0.476266	-0.872821
H	2.901433	-0.535865	0.84617
H	2.799297	-0.220617	-1.940473
H	3.756574	3.53435	0.029199
