13
-1388.68
O          0.93962        0.06869        0.01488
C          2.36250        0.01612        0.01545
C          2.92739        1.43282        0.00000
C          4.37139        1.43282        0.00000
C          5.56155        1.43282        0.00000
C          7.09343        1.43142        0.00001
C          8.29326        1.43063        0.00002
H          0.62182       -0.85081        0.02490
H          2.68811       -0.54515       -0.86734
H          2.68811       -0.52577        0.91027
H          2.54247        1.98384        0.86655
H          2.54247        1.96481       -0.87836
H          9.35819        1.43130        0.00001
