13
-1348.14
O          2.03044       -0.44647       -1.31184
C          2.42843       -0.05203       -0.00558
C          2.89050        1.35524        0.00878
C          2.13711        2.50704       -0.09291
N          3.01501        3.54839       -0.03454
N          4.29102        3.16252        0.12295
C          4.21629        1.82918        0.12918
H          1.74356       -1.37174       -1.24820
H          3.22473       -0.72493        0.32964
H          1.57280       -0.17482        0.66745
H          1.07597        2.66829       -0.21533
H          2.81614        4.54191       -0.09100
H          5.12929        1.25576        0.22528
