16
-1586.38
C          0.89581        0.20649       -0.07497
N          2.30087       -0.03108       -0.38313
C          3.12923        1.08526        0.10164
C          4.59415        0.85165       -0.26057
O          5.22402        1.65269       -0.94971
C          5.24235       -0.37860        0.28664
C          6.54023       -0.62999        0.07396
H          0.29801       -0.63942       -0.42760
H          0.52475        1.11038       -0.56894
H          0.73652        0.29650        1.00425
H          2.40666       -0.09495       -1.39817
H          3.06061        1.19005        1.19038
H          2.81211        2.02848       -0.35840
H          4.61624       -1.05529        0.85667
H          7.16349        0.04910       -0.50136
H          7.00479       -1.52608        0.47004
