15

O	1.008329	0.031773	0.006165
C	2.408243	-0.00473	0.018633
C	2.973329	1.116342	0.876365
C	4.385553	0.628422	1.153253
N	4.198373	-0.796222	1.377502
C	3.016124	-1.261582	0.668901
H	0.692798	-0.658508	-0.584952
H	2.813491	0.104705	-1.009523
H	2.38601	1.162698	1.807621
H	2.928548	2.100148	0.388074
H	5.038228	0.859072	0.282229
H	4.837261	1.122059	2.030499
H	5.028742	-1.3514	1.214211
H	3.241546	-2.040774	-0.082737
H	2.261245	-1.684993	1.360358
