15
-1527.09
O          1.10311        0.02164        0.64724
C          2.44654        0.00915        0.15834
C          2.69665        1.19520       -0.77496
O          3.98588        1.18480       -1.39438
C          4.34142       -0.03237       -1.91054
C          3.77853       -1.19920       -1.59832
C          2.69671       -1.31601       -0.57106
H          0.93153        0.90247        1.02711
H          3.12283        0.07488        1.01931
H          2.61258        2.12974       -0.20659
H          1.92489        1.25209       -1.55568
H          5.16916        0.06973       -2.60327
H          4.12394       -2.11272       -2.07590
H          1.78042       -1.67315       -1.05038
H          2.97457       -2.07766        0.16527
