15

C	0.85437	-0.046156	0.173277
N	2.159	-0.339993	-0.359216
C	2.552728	-1.632226	-0.550407
O	1.813217	-2.590207	-0.529487
N	3.124672	0.658925	-0.126825
C	4.107414	0.82404	-1.18732
C	3.013976	1.801989	-1.026118
H	0.393733	0.798231	-0.36239
H	0.920588	0.206334	1.244822
H	0.239142	-0.945196	0.043866
H	3.646266	-1.709183	-0.751765
H	4.039533	0.161058	-2.056762
H	5.123715	1.03742	-0.84419
H	3.180306	2.774725	-0.555734
H	2.220041	1.76934	-1.780881
