15
-1553.34
C          0.96783       -0.00266        0.00080
C          2.46882       -0.01526        0.00161
C          3.15328       -1.16904        0.00960
C          3.18500        1.21763        0.00000
C          3.78008        2.24834        0.00000
C          4.50208        3.49888        0.00000
O          3.60070        4.58611       -0.16351
H          0.57494        1.01869        0.04760
H          0.57579       -0.54661        0.86659
H          0.57992       -0.46583       -0.91242
H          2.64224       -2.12661        0.01330
H          4.23921       -1.18821        0.01325
H          5.23294        3.53774       -0.81335
H          5.03996        3.64704        0.94082
H          3.04135        4.37004       -0.92883
