13
-1324.94
N          2.02144       -0.40192       -1.29190
C          2.54707       -0.06308        0.02232
C          2.99575        1.34477        0.00578
C          2.24893        2.48364       -0.19255
O          3.04204        3.57972       -0.11395
N          4.34455        3.18472        0.14534
C          4.29749        1.85211        0.21282
H          1.75817       -1.38603       -1.30414
H          2.75700       -0.29552       -1.98899
H          3.37508       -0.73433        0.27405
H          1.76597       -0.19969        0.77794
H          1.20462        2.67211       -0.39543
H          5.21339        1.31151        0.41172
