16
-1592.66
C          0.94132        0.02916        0.20867
C          2.41862       -0.04926       -0.11404
N          3.22843        0.95912        0.60835
C          4.17254       -0.03650        1.16363
C          5.53636        0.02900        0.50657
C          3.22597       -1.12039        0.62992
O          3.15511       -2.32583        0.74142
H          0.41115       -0.82393       -0.22653
H          0.50058        0.94051       -0.20896
H          0.75340        0.02356        1.28807
H          2.61288       -0.05969       -1.19340
H          2.71226        1.46585        1.32995
H          4.22912       -0.02196        2.25720
H          5.46959        0.01375       -0.58732
H          6.14995       -0.82449        0.81396
H          6.06648        0.94161        0.80011
