15

C	0.972439	-0.02972	0.023304
C	2.511121	-5.5e-05	0.005207
C	3.0699	-0.75234	1.226627
C	2.96371	-0.763811	-1.242401
O	3.620168	-0.330461	-2.142641
C	3.002018	1.376247	-0.021527
C	3.409655	2.515715	-0.029101
H	0.554714	0.511046	-0.838167
H	0.598784	0.443805	0.942798
H	0.605422	-1.068268	-0.000332
H	2.710968	-0.281456	2.153189
H	4.16948	-0.73607	1.233288
H	2.73129	-1.800522	1.221686
H	2.604531	-1.829055	-1.239143
H	3.775247	3.525708	-0.046026
