19
-1849.16
C          1.91155       -0.51884       -1.27924
C          2.42482        0.07577        0.02230
C          3.36096        1.24203       -0.25607
C          2.73562        2.56217       -0.73018
C          3.36139        3.16251        0.53192
C          4.54666        4.08646        0.33480
O          3.79347        1.85620        0.98570
H          1.25703       -1.37184       -1.07578
H          2.74032       -0.86437       -1.90537
H          1.34251        0.21855       -1.85390
H          2.95901       -0.69988        0.58290
H          1.57720        0.39539        0.63993
H          4.23807        0.94173       -0.84309
H          1.64192        2.58900       -0.74371
H          3.12185        2.93726       -1.68193
H          2.62191        3.58375        1.22272
H          5.30787        3.63618       -0.31142
H          5.01552        4.32217        1.29574
H          4.22778        5.02845       -0.12320
