15
-1436.2
C          0.83602       -0.06924       -0.12947
C          2.31466        0.01811       -0.30010
C          3.05933        1.06155        0.08794
N          4.41415        1.06809       -0.09845
C          5.03039        2.14990        0.25493
N          6.38611        2.33860        0.13729
O          7.09647        1.13361        0.04923
H          0.58222       -0.94274        0.47879
H          0.35371       -0.17803       -1.10579
H          0.42196        0.81837        0.35900
H          2.80559       -0.82908       -0.77262
H          2.57812        1.91542        0.56246
H          4.52627        3.03847        0.67679
H          6.81511        3.01915        0.75992
H          6.43672        0.51805       -0.34392
