18

C	-1.701448	0.833575	0.538851
C	-1.178957	-0.294138	-0.298333
C	-0.32969	-1.396771	0.302189
C	1.063128	-1.338384	-0.322991
C	1.722067	0.042716	-0.088645
N	0.802556	1.101548	0.303574
C	-0.485846	1.052682	-0.310644
H	-2.630863	1.319841	0.231806
H	-1.566378	0.776488	1.625132
H	-1.759705	-0.56866	-1.185662
H	-0.257509	-1.278784	1.397211
H	-0.792547	-2.381752	0.134019
H	1.708483	-2.140709	0.068556
H	0.959471	-1.52783	-1.404569
H	2.48698	-0.032571	0.700911
H	2.268089	0.347045	-0.999768
H	0.732134	1.181606	1.310528
H	-0.610484	1.683819	-1.201145
