15
-1439.62
C          3.37041       -1.20917        0.57671
O          2.56236       -0.08780        0.23375
C          3.20694        1.10091        0.02005
C          4.51764        1.36686        0.08051
C          4.98347        2.74129       -0.18627
N          6.24281        3.04147       -0.13251
N          6.48838        4.34516       -0.39579
H          2.71045       -2.07090        0.71326
H          3.89966       -1.03531        1.51940
H          4.07408       -1.44547       -0.22818
H          2.46212        1.85302       -0.22214
H          5.28006        0.63727        0.31558
H          4.20658        3.48939       -0.43185
H          7.49491        4.47470       -0.52962
H          6.26206        4.92451        0.41708
