12
-1293.47
O          0.93637        0.07760        0.01413
C          2.35804        0.01750        0.01571
C          2.92739        1.43282        0.00000
C          4.37139        1.43282        0.00000
C          5.56155        1.43282        0.00000
C          7.09748        1.43237        0.00001
N          8.25908        1.42642        0.00007
H          0.61090       -0.83948        0.02402
H          2.68221       -0.54510       -0.86671
H          2.68111       -0.52491        0.91107
H          2.54322        1.98494        0.86624
H          2.54329        1.96554       -0.87834
