17
-1586.91
N          1.91374       -0.07259       -1.31600
C          2.26867        0.15097        0.08928
C          3.49040        1.08042        0.20547
N          3.33863        2.34875       -0.56580
C          2.86460        3.02322        0.66259
C          3.60076        1.94155        1.49258
O          4.94215        2.27493        1.92419
H          1.15339       -0.75023       -1.36473
H          2.70408       -0.50400       -1.79623
H          2.48796       -0.80671        0.57369
H          1.39789        0.58082        0.59673
H          4.41157        0.54344       -0.05363
H          2.63464        2.25582       -1.30505
H          3.23246        4.04617        0.78393
H          1.77552        3.02428        0.78441
H          3.02655        1.56735        2.34672
H          5.35798        2.62484        1.11286
