17
-1644.3
C          0.79949       -0.38703        0.53405
C          1.98446       -0.13868       -0.38610
C          2.91370        0.93358        0.12053
C          3.78818        0.61237        1.29945
O          3.06241        0.79957        2.50804
C          3.31506        2.06126       -0.81209
O          2.31328        2.24211        0.19314
H          0.14079       -1.14811        0.10428
H          0.21395        0.52634        0.67959
H          1.12374       -0.74083        1.51692
H          1.60216        0.13043       -1.37839
H          2.54592       -1.07135       -0.51582
H          4.66942        1.26122        1.33478
H          4.14022       -0.42300        1.26077
H          2.57057        1.63445        2.39427
H          2.98799        2.03437       -1.84463
H          4.26686        2.55712       -0.66524
