19
-1785.27
C          2.66879       -1.50138       -0.36221
C          1.98890       -0.16867       -0.05207
N          1.02251       -0.32968        1.03757
C          2.99783        0.92833        0.28610
C          3.78846        0.77058        1.56462
C          3.68754        1.63269       -0.87004
N          2.64226        2.30643       -0.11951
H          3.40150       -1.38444       -1.16738
H          1.93422       -2.24833       -0.68299
H          3.19634       -1.90583        0.50804
H          1.42296        0.13111       -0.94363
H          1.47168       -0.77004        1.83715
H          0.28693       -0.96760        0.73867
H          4.51768        1.57837        1.69566
H          4.34624       -0.17046        1.56390
H          3.12944        0.78389        2.43807
H          3.43073        1.34958       -1.88423
H          4.69512        2.00821       -0.74377
H          3.01740        2.98110        0.54798
