13

O	1.088284	-0.201006	0.042592
C	2.430757	-0.260213	0.061161
O	2.995004	-1.310436	0.162938
C	3.136615	1.07529	-0.057911
C	4.653524	0.927117	-0.011597
C	5.347152	2.202186	-0.12862
C	5.905396	3.272208	-0.228113
H	0.790676	0.712633	-0.040913
H	2.78832	1.738525	0.75344
H	2.823956	1.558776	-1.00024
H	4.975922	0.245277	-0.815446
H	4.940474	0.425556	0.927192
H	6.40765	4.217836	-0.315975
