20
-1870.74
C          0.83552       -0.06343       -0.03414
C          2.35464        0.02927       -0.01669
O          2.85366       -0.69995       -1.14561
C          2.94002        1.47624       -0.04653
C          2.43088        2.28900       -1.24716
C          2.63998        2.22879        1.25621
N          4.41210        1.34819       -0.20274
H          0.38298        0.46632        0.80864
H          0.52469       -1.11331        0.01785
H          0.41865        0.32824       -0.96806
H          2.72236       -0.49168        0.87624
H          3.75400       -0.33651       -1.28495
H          2.62013        1.77472       -2.19598
H          2.91948        3.26941       -1.30029
H          1.35415        2.47390       -1.17502
H          2.99156        1.66953        2.13043
H          1.56611        2.40160        1.37933
H          3.12956        3.20961        1.27129
H          4.80464        0.91614        0.63600
H          4.82842        2.27976       -0.24993
