13
-1398.48
C          1.10339        0.01500        0.16205
C          2.40371        0.03761       -0.13472
O          3.13702        1.20084       -0.26974
C          4.34812        0.76261       -0.91954
C          4.62598       -0.69692       -0.56643
C          3.23632       -1.16627       -0.33646
O          2.86499       -2.32422       -0.26762
H          0.56958       -0.92460        0.26599
H          0.55157        0.93671        0.30596
H          4.21433        0.88520       -2.00182
H          5.17383        1.41079       -0.60839
H          5.12004       -1.22665       -1.38336
H          5.19435       -0.78777        0.36367
