11

C	0.983172	0.004515	-0.005035
C	2.489926	-0.077308	0.004451
O	3.08347	-1.130606	0.012116
C	3.208539	1.189336	0.00192
C	3.80821	2.253484	0.000184
C	4.479009	3.446135	-0.001611
C	5.073644	4.507947	-0.003216
H	0.605013	1.034146	0.019215
H	0.597109	-0.554416	0.86087
H	0.612568	-0.503234	-0.908808
H	5.600419	5.445142	-0.004526
