16

C	0.959944	-0.036053	-0.009178
C	2.443455	0.078905	-6.9e-05
C	3.268902	1.185389	0.005954
C	4.614304	0.723798	0.01285
C	4.582328	-0.657076	0.010963
C	5.680723	-1.665676	0.013973
N	3.26068	-1.021829	0.003349
H	0.507962	0.964507	-0.003546
H	0.576449	-0.576358	0.873703
H	0.586024	-0.561916	-0.904846
H	2.930758	2.220444	0.005734
H	5.515288	1.335143	0.018932
H	5.281988	-2.691494	0.029208
H	6.333173	-1.555988	0.895121
H	6.320282	-1.577247	-0.879186
H	2.9344	-1.9782	0.000438
