14
-1427.91
C          0.99361        0.00124        0.03275
C          2.51107       -0.00145       -0.11979
C          3.03197       -1.25145       -0.84083
C          3.41846       -0.69393       -2.15698
C          3.32435        0.62804       -2.09788
O          2.89063        1.15686       -0.90179
H          0.66361        0.92137        0.52802
H          0.65237       -0.85529        0.62266
H          0.49630       -0.02400       -0.94384
H          2.97155        0.08932        0.87055
H          2.28011       -2.04169       -0.92132
H          3.91245       -1.66015       -0.33355
H          3.75763       -1.26539       -3.00668
H          3.56264        1.35545       -2.85632
