13
-1319.54
O          0.84068       -0.03328        0.25443
C          2.27097       -0.00642       -0.00689
C          3.07973        1.04463        0.79233
N          3.80630       -0.01520        1.50093
C          3.11123       -1.06552        0.74796
C          2.51876        0.02744       -1.44112
N          2.75797        0.05489       -2.57609
H          0.77094       -0.05473        1.22528
H          2.47588        1.66956        1.46049
H          3.72087        1.71097        0.20414
H          4.81823        0.00306        1.35144
H          3.77161       -1.68713        0.13270
H          2.52673       -1.73572        1.38889
