19

C	1.134147	0.237571	0.125299
C	2.626981	-0.089482	-0.01061
C	3.089137	-0.964	1.14966
N	2.93623	-0.802112	-1.250961
C	3.39949	1.223531	-0.066081
C	3.750955	2.046355	1.111859
N	4.762065	1.267582	0.413274
H	0.791949	0.866044	-0.714142
H	0.916748	0.779011	1.060007
H	0.535722	-0.687523	0.118988
H	2.858078	-0.504994	2.122074
H	4.172326	-1.128122	1.083172
H	2.573592	-1.936669	1.115098
H	2.571426	-0.282165	-2.048999
H	2.451349	-1.698306	-1.259467
H	3.169674	1.794146	-0.979441
H	3.511459	1.698528	2.122429
H	3.731484	3.137121	0.997433
H	5.349769	1.849414	-0.179434
