21

C	3.624867	-1.402101	1.927578
C	2.965014	-0.939026	0.631513
C	1.446331	-1.021625	0.741095
C	3.396685	0.473658	0.226676
C	4.880072	0.644433	-0.065527
C	5.239417	2.040957	-0.548452
O	6.597403	2.181407	-0.868456
H	4.722072	-1.437536	1.848254
H	3.28277	-2.410658	2.206695
H	3.369601	-0.723028	2.758998
H	3.284158	-1.62534	-0.1759
H	1.073675	-0.353453	1.535748
H	1.114474	-2.042939	0.985005
H	0.955675	-0.724753	-0.199345
H	3.09152	1.180506	1.022003
H	2.823179	0.769898	-0.670451
H	5.205548	-0.081987	-0.830379
H	5.475223	0.425639	0.839991
H	4.912411	2.788214	0.205688
H	4.678662	2.271044	-1.469979
H	7.108613	2.00227	-0.072626
