11
-1180.38
N          1.03742       -0.03176       -0.12131
C          2.36564        0.09778       -0.06524
C          3.19878        1.18930       -0.02356
C          4.51861        0.67514        0.02866
C          4.39401       -0.69477        0.01806
O          3.08386       -1.05116       -0.03663
H          0.43375        0.74479        0.12123
H          0.64399       -0.94753        0.06807
H          2.89527        2.22568       -0.03537
H          5.44353        1.23249        0.06659
H          5.09924       -1.51330        0.04195
