15
-1517.44
C          1.03547       -0.18653       -0.36023
C          2.51934       -0.31353       -0.13635
O          3.08511       -1.40187       -0.23852
C          3.26088        0.96928        0.18078
C          4.72053        0.76055        0.42640
C          5.75381        1.06323       -0.62680
O          5.48459        1.97485        0.44915
H          0.58531        0.38655        0.45577
H          0.57805       -1.17982       -0.37726
H          0.85159        0.31265       -1.31504
H          2.81136        1.40258        1.08135
H          3.10132        1.66463       -0.65179
H          4.93717        0.01432        1.18032
H          5.42978        1.34937       -1.61864
H          6.68822        0.51682       -0.59695
