18
-1714.33
C          1.45146       -0.25414       -0.10109
N          2.89001       -0.06934       -0.24413
C          3.33312        1.11314        0.50707
C          4.82713        1.21853        0.32805
O          5.54709        0.01773        0.65941
C          5.40670        2.01193       -0.81294
C          5.54474        2.51011        0.60048
H          1.13563       -1.11975       -0.69119
H          0.89559        0.61806       -0.46008
H          1.18060       -0.44838        0.94142
H          3.10700        0.08153       -1.23019
H          3.11377        0.99048        1.57390
H          2.82856        2.01867        0.14961
H          4.96589       -0.74653        0.47428
H          4.73115        2.53920       -1.47431
H          6.29239        1.62092       -1.29994
H          6.52217        2.45427        1.06553
H          4.96262        3.37503        0.89258
