17
-1659.71
C          0.81515        0.56387       -0.33782
N          2.23659        0.33845       -0.42990
C          3.16968        1.31173       -0.23433
N          3.02615        2.58054       -0.34448
C          4.51591        0.81358        0.13150
C          5.25187        1.40405        1.31182
C          4.71360        0.00821        1.39654
H          0.27855       -0.36133       -0.56879
H          0.48671        1.32706       -1.05082
H          0.54001        0.87627        0.67376
H          2.52457       -0.59435       -0.15225
H          2.07033        2.79107       -0.63017
H          5.12824        0.54998       -0.72572
H          4.75579        2.18455        1.87811
H          6.32253        1.54085        1.21641
H          5.42288       -0.81067        1.36932
H          3.86511       -0.15575        2.05037
