12

C	0.889272	0.024085	-0.003478
C	2.377933	0.005747	-0.004676
C	3.224006	1.093415	-0.001931
O	2.771989	2.366002	0.002864
C	4.58915	0.677183	-0.004707
N	4.80615	-0.6153	-0.009295
S	3.356037	-1.411457	-0.010646
H	0.54075	1.065752	0.007937
H	0.47362	-0.485997	0.879838
H	0.472582	-0.466537	-0.897347
H	3.518918	2.97255	0.00525
H	5.445013	1.362517	-0.003188
