15

C	1.255833	0.086064	0.138485
N	2.630376	0.513367	0.050318
N	3.648419	-0.345908	-0.07754
C	3.447717	-1.604286	-0.125956
C	2.938279	1.875696	0.095844
C	4.397042	2.230199	-0.002939
O	2.06013	2.701466	0.207619
H	0.641491	0.987603	0.235271
H	1.102095	-0.562324	1.017372
H	0.958117	-0.46818	-0.767668
H	4.330647	-2.241334	-0.232144
H	2.462836	-2.089099	-0.069315
H	4.974621	1.756794	0.802878
H	4.47634	3.321775	0.057948
H	4.825167	1.867308	-0.947803
