15
-1524.15
C          0.92899       -0.10474       -0.06185
N          2.38199       -0.05007       -0.15806
C          2.86569        1.31475        0.01064
C          4.36083        1.30950       -0.03656
C          5.08868        2.01591       -0.91543
C          6.50883        1.98341       -0.92336
N          7.66905        1.96588       -0.93920
H          0.59469       -1.13974       -0.18321
H          0.45263        0.49660       -0.84314
H          0.58265        0.24054        0.91763
H          2.66513       -0.39691       -1.07420
H          2.55662        1.70996        0.98556
H          2.44996        1.96941       -0.76469
H          4.85865        0.68955        0.70861
H          4.61111        2.64088       -1.66166
