13

C	1.011857	-0.016768	0.010073
C	2.526679	0.063388	0.001776
S	3.01676	1.788381	-0.005098
O	2.608105	2.379616	-1.270357
O	2.623108	2.385692	1.262077
C	4.753622	1.675858	-0.015029
C	5.963802	1.627802	-0.021952
H	0.694848	-1.069123	0.014473
H	0.592415	0.470646	-0.881398
H	0.601954	0.475246	0.903449
H	2.974546	-0.383707	-0.898362
H	2.984201	-0.379336	0.899206
H	7.039833	1.596334	-0.028236
