13
-1312.18
N          1.02704       -0.07956       -0.36092
C          2.34895        0.06129       -0.02939
C          3.08748        1.16948        0.04631
C          4.51202        1.33137        0.41009
O          4.74517        2.75417        0.42241
N          3.57069        3.43400       -0.01343
C          2.66446        2.53630       -0.21447
H          0.57382       -0.89763        0.04313
H          0.45860        0.76023       -0.28230
H          2.81732       -0.89921        0.18472
H          5.17802        0.88250       -0.33169
H          4.73299        0.93721        1.40549
H          1.64334        2.75258       -0.55465
