11
-1240.61
O          1.03764        0.06140        0.22703
C          2.25563        0.01024        0.08338
N          2.96465        1.18550       -0.03331
C          4.31767        1.24727       -0.19694
C          5.03285        0.12451       -0.24977
C          4.23529       -1.10714       -0.12003
N          2.95563       -1.16985        0.03448
H          2.40091        2.02447        0.00953
H          4.76116        2.23373       -0.27730
H          6.10373        0.07660       -0.37612
H          4.81253       -2.04558       -0.16181
