15
-1391.77
C          0.92443       -0.04116        0.02329
C          2.44155       -0.01535        0.00770
C          2.98475        1.40784        0.00002
O          4.40972        1.34406       -0.01610
C          4.99282        2.63993       -0.01391
H          0.56208       -1.07411        0.03041
H          0.51380        0.45632       -0.86187
H          0.53182        0.46232        0.91309
H          2.81409       -0.55532       -0.87054
H          2.83188       -0.55222        0.87999
H          2.65219        1.94589        0.89588
H          2.63275        1.94405       -0.88954
H          6.08059        2.52819       -0.03316
H          4.71371        3.18367        0.89365
H          4.68348        3.20141       -0.90040
