21
-1984.45
C          2.37316       -0.64858        0.32980
O          3.69731       -0.18010        0.11554
C          3.76842        1.24509        0.16493
C          5.21975        1.72112       -0.06807
C          6.14823        1.14912        1.01624
C          5.71785        1.25606       -1.44691
C          5.25759        3.25648       -0.00786
H          2.38172       -1.74056        0.27949
H          1.70158       -0.26826       -0.44608
H          2.01538       -0.34723        1.31920
H          3.41335        1.58729        1.14486
H          3.10750        1.66299       -0.60446
H          5.81433        1.44524        2.01702
H          7.17450        1.51117        0.88759
H          6.17914        0.05446        0.98466
H          5.06948        1.63119       -2.24683
H          5.74111        0.16372       -1.52016
H          6.73246        1.62112       -1.64298
H          4.61236        3.69851       -0.77527
H          6.27337        3.63460       -0.16866
H          4.91642        3.62263        0.96694
