14
-1460.57
C          0.90817        0.08677       -0.00831
C          2.38544        0.03900       -0.00261
C          3.26555        1.09500        0.00630
O          4.53840        0.63503        0.00877
N          4.52724       -0.74592        0.00147
C          3.23706       -1.09993       -0.00527
C          2.87185       -2.53497       -0.01443
H          0.54252        1.11868       -0.00000
H          0.50447       -0.42162        0.87304
H          0.51197       -0.40475       -0.90255
H          3.15875        2.16965        0.01148
H          1.78646       -2.67477       -0.01060
H          3.27856       -3.04021        0.86815
H          3.27081       -3.02654       -0.90813
