13
-1268.15
C         -0.79559       -0.99982       -0.19913
C         -1.18903        0.38476        0.24735
C          0.00457        1.20367       -0.19345
O          1.15054        0.34529       -0.09740
C          0.69415       -1.00472        0.06840
H         -1.32637       -1.79934        0.32420
H         -0.98254       -1.10987       -1.27414
H         -1.27775        0.41079        1.33969
H         -2.13037        0.73587       -0.18261
H         -0.09241        1.51457       -1.23922
H          0.15650        2.09369        0.42331
H          1.24071       -1.66431       -0.61103
H          0.91096       -1.30624        1.09850
