12
-1317.58
O          2.43376       -0.75103       -0.97959
C          2.08706        0.22845       -0.33046
C          0.73283        0.37632        0.16812
N         -0.34395        0.52525        0.58140
C          3.05912        1.29447        0.02800
C          3.84043        1.99219       -1.06285
C          2.79666        2.74736       -0.29431
H          3.61053        1.08049        0.93883
H          3.63026        1.73481       -2.09610
H          4.88314        2.22071       -0.87178
H          3.13241        3.49370        0.41819
H          1.88805        3.02284       -0.81922
