14

C	1.004773	-0.326596	-0.426624
C	2.302268	-0.126684	-0.175121
N	2.896477	1.110655	0.098214
C	2.10517	2.234557	0.387683
C	2.374421	3.481574	-0.006186
C	4.282224	1.183933	0.159804
O	5.024558	0.274259	-0.10386
H	0.645556	-1.341946	-0.598386
H	0.276913	0.485506	-0.488852
H	3.029221	-0.942117	-0.168678
H	1.229125	2.011176	1.007053
H	3.212016	3.719929	-0.666052
H	1.747239	4.305705	0.337061
H	4.624941	2.183389	0.506534
