13
-1350.08
N          2.25450       -0.45764       -1.34694
C          2.45579        0.02452        0.01512
C          2.87198        1.44187        0.01216
C          2.20769        2.64587       -0.00773
N          3.10809        3.68139        0.01100
C          4.27212        3.07181        0.02617
O          4.21566        1.71149        0.02999
H          2.07391       -1.45926       -1.32081
H          3.12654       -0.34090       -1.86334
H          3.21395       -0.59024        0.51264
H          1.52332       -0.08855        0.57817
H          1.14004        2.81740       -0.03520
H          5.25748        3.51531        0.03783
