23
-2189.38
C          1.00911       -0.84361        1.29807
C          2.32745       -0.38188        1.90361
C          2.75231        1.04392        1.48438
C          1.68466        2.11794        1.78431
C          1.33132        2.28417        3.25589
C          4.13101        1.35441        2.10842
C          4.71961        2.69113        1.68096
H          0.84342       -1.90140        1.52750
H          1.01318       -0.72872        0.21127
H          0.16336       -0.28448        1.70577
H          3.10791       -1.08721        1.58829
H          2.26881       -0.45874        2.99615
H          2.88610        1.03223        0.39342
H          0.76773        1.88699        1.22830
H          2.01727        3.08574        1.39185
H          0.92340        1.36253        3.67853
H          0.57048        3.06365        3.36821
H          2.20091        2.58424        3.84666
H          4.83656        0.56735        1.81363
H          4.07330        1.32007        3.20276
H          4.74988        2.77759        0.59030
H          5.74449        2.78556        2.05602
H          4.14622        3.53114        2.08266
