20
-1920.45
C          1.14706       -0.55587       -0.05491
C          2.64995       -0.32994        0.00449
C          2.99275        1.15921       -0.04103
C          4.47769        1.37936        0.02139
C          5.18605        1.97284       -0.95327
C          6.65976        2.21033       -0.90276
N          7.29153        1.56502       -2.04271
H          0.92285       -1.62665       -0.01954
H          0.72585       -0.15113       -0.98083
H          0.64429       -0.07525        0.79061
H          3.12407       -0.85098       -0.83609
H          3.04305       -0.77932        0.92460
H          2.53013        1.67336        0.80972
H          2.57198        1.60688       -0.94984
H          4.98176        1.03605        0.92251
H          4.67960        2.32386       -1.85041
H          7.09897        1.83061        0.02619
H          6.85101        3.28753       -0.94391
H          7.14910        0.55871       -1.96642
H          8.29757        1.71140       -1.98966
