16
-1609.75
C          0.89595        0.08461        0.12895
C          2.40251       -0.05523        0.12369
C          3.21388        1.06736        0.81391
C          3.87452       -0.09331        1.57949
O          4.90183       -0.27911        2.18537
N          2.87057       -0.94325        1.20569
C          3.09265       -2.35562        1.07664
H          0.42092       -0.83143       -0.23810
H          0.58589        0.90477       -0.52668
H          0.50520        0.29000        1.13170
H          2.80259       -0.35115       -0.85465
H          2.65598        1.75170        1.45910
H          3.88910        1.62261        0.15983
H          2.20670       -2.82202        0.63946
H          3.27788       -2.77327        2.07006
H          3.96926       -2.53769        0.44830
