14

C	1.682917	-0.161112	-0.102944
C	0.767762	-1.141662	0.599445
O	-0.418876	-1.394173	-0.149972
C	-1.389218	-0.471674	-0.115609
N	-1.368159	0.782438	0.116947
O	-0.145095	1.399638	0.343843
C	0.881544	1.054186	-0.565415
H	2.175403	-0.633711	-0.967843
H	2.475814	0.135507	0.602344
H	1.246027	-2.121834	0.732936
H	0.486014	-0.759229	1.593773
H	-2.373285	-0.89577	-0.34261
H	1.522452	1.945291	-0.647793
H	0.436531	0.876786	-1.560922
