18
-1698.71
C          0.96989       -0.10361       -0.00157
C          2.49578       -0.00090       -0.00976
C          3.05313       -0.77257       -1.21254
C          2.98826        1.46110       -0.02235
C          2.50170        2.28365        1.16648
O          4.41637        1.48637       -0.01145
H          0.54732        0.30930        0.91968
H          0.64888       -1.14969       -0.06146
H          0.53140        0.43270       -0.85053
H          2.88022       -0.49519        0.89138
H          2.72965       -0.32098       -2.15718
H          2.70965       -1.81307       -1.20054
H          4.14805       -0.79035       -1.20170
H          2.66841        1.95522       -0.94754
H          2.77287        1.80208        2.11265
H          1.41838        2.43102        1.14489
H          2.97903        3.27013        1.16838
H          4.71524        1.04773        0.80319
