15
-1586.18
C          0.98538       -0.18701        0.16861
C          2.45121       -0.28790       -0.16130
C          2.99680       -1.46927       -0.49745
C          3.28394        0.90720       -0.11658
C          2.86392        2.13784        0.21089
C          3.81513        3.26664        0.21626
O          3.45689        4.39877        0.51570
H          0.47927        0.49807       -0.52004
H          0.84237        0.17126        1.19369
H          0.48082       -1.15644        0.09037
H          2.39972       -2.37555       -0.53906
H          4.04961       -1.57634       -0.74075
H          4.33236        0.75903       -0.37547
H          1.84502        2.38227        0.48306
H          4.85635        3.03480       -0.06206
