12
-1242.44
O          0.84496        0.03580        0.03414
C          2.07569        0.00436        0.05225
C          2.91961        1.24670       -0.05447
O          4.11785        0.99778        0.67646
N          4.92160        0.00720        0.06402
C          4.28099       -1.09957       -0.15221
C          2.82613       -1.29239        0.12832
H          2.40050        2.08605        0.41408
H          3.14129        1.47575       -1.10086
H          4.84075       -1.96582       -0.54183
H          2.42506       -1.97712       -0.62505
H          2.71300       -1.73407        1.12178
