15
-1461.29
C          1.05887       -0.07013       -0.01076
C          2.58104        0.03514        0.00796
N          3.19099       -1.05773       -0.76526
N          3.42022       -0.70432       -2.05738
C          3.37566        0.58879       -2.08637
C          3.09662        1.25103       -0.76734
O          4.32356        1.73782       -0.24157
H          0.61351        0.77367        0.52588
H          0.72778       -0.99224        0.47799
H          0.65841       -0.06641       -1.03004
H          2.94746        0.01832        1.04019
H          2.68388       -1.94169       -0.69019
H          3.55579        1.18908       -2.98893
H          2.37853        2.06743       -0.87268
H          4.90151        0.95477       -0.14829
