16
-1632.68
C          0.99232       -0.01393        0.03316
C          2.50737        0.01859        0.01901
C          3.10332        1.16543        0.84163
C          4.46903        0.63446        1.23712
N          4.24432       -0.77226        1.37175
C          3.13069       -1.19808        0.67432
O          2.76844       -2.35632        0.57302
H          0.61819       -0.84928       -0.56777
H          0.57954        0.91323       -0.37614
H          0.60447       -0.14443        1.04912
H          2.87677        0.06515       -1.01260
H          2.50134        1.34709        1.74164
H          3.16379        2.10325        0.28142
H          5.21277        0.78984        0.44973
H          4.83238        1.05049        2.17946
H          4.86498       -1.43899        1.81427
