14
-1364.76
C          0.67650        0.00102       -0.08884
C          2.16927       -0.03692       -0.17036
N          2.88984        0.81976        0.47582
O          4.24429        0.55947        0.21856
C          5.02523        1.54602        0.88494
C          6.46696        1.17459        0.67459
O          7.35174        1.98445        0.40887
H          0.31868       -0.95501        0.30228
H          0.27110        0.14143       -1.09434
H          0.33926        0.81325        0.56006
H          2.61759       -0.82279       -0.80305
H          4.81555        1.53409        1.95911
H          4.83018        2.53493        0.45915
H          6.71675        0.11714        0.86659
