17
-1651.98
C          0.82125       -0.35519        0.09369
C          2.31989       -0.12103        0.03245
C          2.66166        1.36322        0.03884
O          4.08234        1.49694       -0.00246
C          4.47661        2.86346       -0.04553
C          5.98404        2.92470       -0.07808
O          6.61708        3.72857       -0.75904
H          0.60368       -1.42777        0.08140
H          0.31677        0.10360       -0.76278
H          0.39566        0.06708        1.00973
H          2.73291       -0.58837       -0.86944
H          2.80922       -0.61592        0.87969
H          2.27896        1.83781        0.94989
H          2.21980        1.85721       -0.83430
H          4.13328        3.38172        0.85514
H          4.07846        3.34683       -0.94326
H          6.50146        2.26194        0.63607
