16
-1617.09
C          1.00000        0.00000        0.00000
C          2.44400        0.00000        0.00000
C          3.63416        0.00000        0.00000
C          5.07537        0.04823       -0.01868
C          5.74269        1.09478        0.89860
C          6.72338       -0.04200        1.23580
N          5.65165       -0.99413        0.86648
H          0.60598        1.02087        0.01176
H          0.60601       -0.52057        0.87826
H          0.60592       -0.50028       -0.88993
H          5.50014        0.03297       -1.03164
H          5.14059        1.42865        1.75268
H          6.17623        1.96721        0.40220
H          7.60092       -0.08724        0.57988
H          7.04897       -0.09542        2.27683
H          5.96200       -1.83069        0.37756
