17

N	1.671103	-2.093799	-0.528892
C	1.541146	-0.837335	0.19898
C	2.663163	0.138478	-0.142044
C	4.077529	-0.451281	-0.120963
C	4.434682	-1.129223	1.194519
N	3.973826	-2.402884	1.296991
O	5.070929	-0.570001	2.066489
H	0.864224	-2.691143	-0.35965
H	1.69855	-1.925151	-1.534022
H	1.581261	-1.072443	1.275974
H	0.57229	-0.325071	0.029354
H	2.606576	0.984526	0.561874
H	2.483261	0.564491	-1.145155
H	4.809708	0.35372	-0.270116
H	4.193606	-1.172663	-0.945165
H	3.279916	-2.728406	0.619687
H	4.08486	-2.869175	2.188148
