15

C	0.931405	-1.184936	0.832683
C	1.186929	-0.35435	-0.362995
C	0.98441	1.137919	-0.397849
C	-0.277592	1.561711	0.352345
N	-1.424475	0.701694	0.152209
C	-1.229453	-0.524389	-0.098819
N	0.001698	-1.200176	-0.300402
H	1.493099	-2.110848	0.99355
H	0.598887	-0.687824	1.751763
H	1.931717	-0.731952	-1.075636
H	1.869077	1.665255	-0.005775
H	0.887263	1.432191	-1.456322
H	-0.082858	1.603654	1.439795
H	-0.556789	2.58943	0.070998
H	-2.101748	-1.187248	-0.198137
