13

N	2.528219	-0.504043	-1.393161
C	2.342724	0.049644	-0.063899
C	2.795166	1.461409	-0.003373
C	2.213106	2.663337	0.258614
N	3.162205	3.66044	0.169673
C	4.247756	3.039305	-0.139274
O	4.109884	1.706277	-0.259041
H	2.262546	-1.486319	-1.403285
H	3.515231	-0.470637	-1.642751
H	2.860032	-0.509851	0.746419
H	1.271206	0.04286	0.189791
H	1.172701	2.868814	0.50355
H	5.240294	3.451835	-0.314203
