11
-1198.02
C          1.00106       -0.05528        0.00362
C          2.52000        0.00000        0.00000
C          3.00202        1.36117        0.00000
C          3.39930        2.48307        0.00000
C          3.91011        3.93101        0.00000
N          4.29612        5.02631        0.00000
H          0.65861       -1.09502        0.00453
H          0.58441        0.43905       -0.88086
H          0.58856        0.43925        0.88994
H          2.89560       -0.53269       -0.88089
H          2.89979       -0.53404        0.87827
