13
-1213.4
C          1.34021       -0.34473        0.00380
O          2.69200        0.06899        0.04289
S          2.97990        1.66937       -0.05055
O          2.53733        2.12853       -1.35179
O          2.48359        2.27973        1.16612
C          4.71336        1.63880        0.01028
C          5.42713        1.21272       -1.04112
H          1.30727       -1.43323        0.09931
H          0.88108       -0.06449       -0.94857
H          0.77888        0.09504        0.83344
H          5.17531        1.97693        0.92628
H          4.95078        0.87957       -1.95973
H          6.51133        1.19522       -1.00377
