15

C	0.939036	0.045005	0.296633
C	2.41468	-0.002426	-0.059142
N	2.740072	1.095659	-0.957631
N	3.913353	1.172763	-1.58796
C	4.512435	0.060701	-1.861993
C	3.892045	-1.224412	-1.584946
C	2.823068	-1.266533	-0.7733
H	0.679311	0.994704	0.790861
H	0.685533	-0.769869	0.991143
H	0.321515	-0.056271	-0.60823
H	3.000962	0.081578	0.889173
H	2.392921	2.007626	-0.685359
H	5.451835	0.13521	-2.415879
H	4.26402	-2.118882	-2.091244
H	2.275573	-2.193053	-0.576955
