13
-1421.77
C          0.97200       -0.04823        0.00885
C          2.30809       -0.01218       -0.00016
C          3.01704        1.21763        0.00000
C          3.61212        2.24834        0.00000
C          4.33412        3.49888        0.00000
C          3.39873        4.66663       -0.16738
O          3.48724        5.70549        0.48274
H          0.44534       -0.99735        0.01021
H          0.37352        0.85712        0.01792
H          2.88102       -0.93419       -0.00632
H          5.04912        3.53067       -0.82844
H          4.89119        3.62822        0.93349
H          2.66724        4.58451       -0.99015
