15

C	1.748004	0.180222	1.291149
O	1.695971	1.469018	0.731703
C	2.81628	1.922606	0.132396
C	2.681887	3.268967	-0.428833
C	1.521239	3.926359	-0.53107
N	3.863135	1.188797	0.11458
N	5.004436	1.64296	-0.487568
H	0.749776	-0.018291	1.702421
H	2.504036	0.118537	2.090923
H	2.003287	-0.577556	0.532176
H	3.61491	3.74663	-0.741552
H	0.586701	3.461874	-0.207484
H	1.48038	4.941912	-0.931433
H	5.638795	0.861291	-0.611338
H	4.852934	2.086683	-1.39423
