17

C	2.510487	-0.815551	-1.425781
C	2.384079	0.130982	-0.268823
C	1.412881	0.026204	0.645724
C	3.420721	1.202394	-0.223211
C	3.272668	2.457149	-1.07322
C	3.222747	2.535343	0.421813
O	4.211265	3.150445	1.1698
H	3.484648	-1.333057	-1.400139
H	2.473856	-0.267223	-2.381987
H	1.718054	-1.577732	-1.428642
H	0.653762	-0.758529	0.578865
H	1.346176	0.71296	1.493665
H	4.450454	0.817759	-0.180834
H	2.341218	2.590196	-1.631902
H	4.165546	2.838862	-1.57876
H	2.244213	2.733496	0.868443
H	5.066435	2.956913	0.77312
