14
-1373.15
C          0.99445       -0.32659        0.29170
C          2.36089        0.06953       -0.25132
O          2.61480       -0.67365       -1.43945
C          2.45877        1.58191       -0.48585
C          3.50450        2.05290       -1.46336
O          1.74284        2.39076        0.10740
H          0.78684        0.15778        1.24997
H          0.93184       -1.41227        0.42485
H          0.20183       -0.04565       -0.41009
H          3.13782       -0.19657        0.47484
H          1.83832       -0.58354       -2.01875
H          4.46498        1.58743       -1.23424
H          3.61639        3.13916       -1.38838
H          3.19191        1.79900       -2.48049
