17

C	0.964462	-0.047429	0.09564
C	2.454707	0.02813	-0.023695
C	3.114708	1.191571	-0.097679
C	4.601605	1.315686	-0.218606
C	5.302888	-0.00483	-0.274006
C	4.662324	-1.173753	-0.200575
C	3.177622	-1.291579	-0.055551
H	0.500979	0.94888	0.114393
H	0.668233	-0.581614	1.015328
H	0.528755	-0.614453	-0.745292
H	2.542563	2.126071	-0.069859
H	4.999409	1.914744	0.624763
H	4.858109	1.914837	-1.114666
H	6.392588	0.009879	-0.381182
H	5.233589	-2.106866	-0.247402
H	2.766681	-1.915306	-0.874569
H	2.933118	-1.865219	0.861316
