14
-1409.01
O          2.56439       -0.40614       -1.54556
C          2.11941        0.03263       -0.26803
C          2.69861        1.39755        0.02777
C          1.90500        2.46410        0.21300
N          4.06321        1.57193        0.13004
C          5.04839        0.63866       -0.03849
O          6.23849        0.90710        0.08599
H          2.09077       -1.23254       -1.74019
H          2.43322       -0.69226        0.49020
H          1.02336        0.05543       -0.28028
H          0.82443        2.38446        0.14237
H          2.30287        3.45050        0.42824
H          4.42321        2.49805        0.32706
H          4.70372       -0.37718       -0.27532
