13

O	0.719099	0.426652	-0.039059
C	1.878833	0.198719	0.170304
C	3.010232	1.153462	-0.0948
C	2.595892	2.624867	-0.227327
N	2.982807	2.821142	1.172717
C	3.771278	1.591853	1.179479
H	2.204921	-0.790731	0.59075
H	3.636595	0.721857	-0.89408
H	1.530161	2.796899	-0.448449
H	3.214927	3.167399	-0.966755
H	3.47173	3.68169	1.402773
H	4.854559	1.718434	0.985268
H	3.655125	0.959016	2.078948
