14
-1395.1
O          2.03537        0.16442        1.22122
C          2.32663        1.08561        1.96494
O          3.44296        1.85246        1.89504
C          4.33911        1.49930        0.81917
C          5.71904        2.18944        0.83706
N          6.34747        0.90819        0.44566
C          5.15810        0.19716        0.96759
H          1.70885        1.42506        2.81093
H          3.84854        1.59667       -0.15986
H          6.03727        2.54805        1.82293
H          5.84960        2.99887        0.11271
H          6.46282        0.80580       -0.56389
H          4.82524       -0.64238        0.35026
H          5.27799       -0.15244        1.99974
