19
-1726.96
C          3.45864       -1.31555       -0.70907
O          4.26314       -0.32582       -0.08150
C          3.75364        0.99250       -0.31414
C          4.65224        2.01207        0.41214
N          6.06880        1.89279       -0.01427
C          4.13434        3.45156        0.19392
N          5.07308        4.44680        0.72563
H          3.89057       -2.29694       -0.49516
H          3.44619       -1.16745       -1.79321
H          2.43900       -1.28844       -0.31269
H          2.72944        1.05924        0.07181
H          3.74092        1.18973       -1.39286
H          4.63793        1.78587        1.48578
H          6.12278        2.06276       -1.01858
H          6.31485        0.90307        0.09099
H          3.15669        3.58104        0.67049
H          4.00609        3.64647       -0.87739
H          6.00505        4.14145        0.41859
H          5.12325        4.33214        1.73841
