18
-1657.9
N          2.74818       -0.74322       -1.21615
C          2.39422       -0.02659        0.01216
C          2.91838        1.41408       -0.00687
O          4.35246        1.39734       -0.01201
C          4.88437        2.72939        0.00667
C          6.40588        2.63434       -0.02478
O          6.82590        2.00597       -1.23469
H          2.56279       -1.73701       -1.09041
H          3.75758       -0.65529       -1.34779
H          2.82864       -0.56212        0.86348
H          1.30555       -0.02503        0.12306
H          2.56803        1.93674        0.89041
H          2.55169        1.94480       -0.89330
H          4.55757        3.24454        0.91624
H          4.52352        3.26728       -0.87738
H          6.77710        2.02934        0.80807
H          6.86047        3.62757        0.02324
H          6.25191        1.22148       -1.32882
