16

C	0.984536	0.592936	-1.138134
N	2.282215	0.597707	-0.520129
C	3.064177	1.687246	-0.295756
C	2.484799	2.997386	-0.737232
C	4.291962	1.547826	0.298911
C	5.227282	2.604277	0.600711
O	6.308386	2.437434	1.130165
H	0.618846	-0.441114	-1.182765
H	1.003567	0.978651	-2.171766
H	0.24105	1.180129	-0.572144
H	2.66193	-0.291637	-0.226062
H	1.530762	3.192529	-0.22323
H	2.275232	2.984535	-1.818187
H	3.159973	3.832805	-0.530267
H	4.626483	0.544914	0.586442
H	4.90759	3.641308	0.313522
