15

O	0.937922	0.156475	-0.423396
C	2.25097	0.010387	0.086211
C	3.115454	1.232906	-0.231936
C	3.499125	1.190469	-1.696719
O	4.297097	0.054787	-1.98584
C	3.845638	-1.095032	-1.456346
C	2.883223	-1.199449	-0.527702
H	0.493171	0.830475	0.102799
H	2.2176	-0.133003	1.185219
H	2.563757	2.161502	-0.012746
H	4.023758	1.229378	0.393104
H	4.085217	2.065768	-2.008144
H	2.574792	1.14016	-2.3017
H	4.370773	-1.961367	-1.868117
H	2.566334	-2.191876	-0.203228
