17
-1672.42
C          1.69979       -0.11966        0.05483
C          0.80521       -1.27091        0.52115
C         -0.45395       -1.44598       -0.31866
N         -1.53341       -0.54684        0.08360
C         -1.30942        0.69253        0.30437
N         -0.17596        1.45417        0.22291
C          0.96620        1.06101       -0.56876
H          2.41937       -0.49983       -0.68198
H          2.29545        0.22320        0.91056
H          1.39611       -2.19390        0.48971
H          0.53270       -1.11814        1.57320
H         -0.82184       -2.46661       -0.16012
H         -0.25303       -1.35884       -1.39229
H         -2.16701        1.30405        0.63569
H         -0.33004        2.45721        0.26094
H          1.65914        1.90702       -0.64354
H          0.65059        0.83179       -1.59318
