13
-1447.48
C          0.96435       -0.03523        0.00001
C          2.30160       -0.00816        0.00000
C          3.01704        1.21763        0.00000
C          3.61212        2.24834        0.00000
C          4.33412        3.49888        0.00000
C          3.73089        4.81085        0.00000
C          3.23371        5.89218        0.00000
H          0.42981       -0.97931        0.00001
H          0.37492        0.87700        0.00001
H          2.86812       -0.93348       -0.00000
H          5.01269        3.46734       -0.86488
H          5.01269        3.46734        0.86488
H          2.78467        6.85870       -0.00000
