17
-1651.32
C          1.72526       -1.33379       -0.38461
C          3.13782       -0.83086       -0.29614
C          4.18345       -1.66788       -0.39781
O          3.20628        0.52969       -0.09492
C          4.49884        1.12496        0.07220
C          4.29099        2.61403        0.33169
O          3.58563        2.80910        1.55747
H          1.14207       -0.97198        0.46768
H          1.67390       -2.42690       -0.38136
H          1.25503       -0.97268       -1.30376
H          4.02870       -2.73213       -0.55378
H          5.21473       -1.34348       -0.33778
H          5.09439        0.99124       -0.83705
H          4.99993        0.67172        0.93499
H          3.69995        3.07340       -0.46696
H          5.25138        3.13162        0.40731
H          2.80976        2.21799        1.51435
