15
-1477.5
C          1.09476        0.17913       -0.23937
N          2.53211        0.30315       -0.01177
C          3.32275       -0.64949       -0.78448
C          3.25716        0.80251       -1.19717
C          4.42179        1.68853       -0.93595
N          4.43715        2.29843        0.28261
O          5.29696        1.84923       -1.77402
H          0.60671        1.13527       -0.02385
H          0.67906       -0.56741        0.44528
H          0.82125       -0.11423       -1.26034
H          2.81080       -1.38164       -1.39686
H          4.23123       -1.00693       -0.31352
H          2.68686        1.05072       -2.08473
H          3.76923        1.99259        0.98061
H          5.25687        2.81897        0.55593
