15

C	0.934856	-0.132348	0.030189
N	2.369307	-0.149609	0.158331
N	2.989098	-1.324044	0.540378
C	3.104369	0.987689	-0.103819
O	2.559221	2.022358	-0.446232
C	4.583165	0.876544	0.056728
C	5.345911	1.943744	-0.189317
H	0.627275	0.872927	-0.281632
H	0.451213	-0.377054	0.992809
H	0.598834	-0.866056	-0.72392
H	2.780444	-2.066596	-0.12812
H	2.64806	-1.621602	1.455129
H	4.998542	-0.08057	0.372889
H	4.880265	2.882535	-0.504507
H	6.433042	1.906832	-0.082636
