19
-1805.02
C          1.43096       -1.24210       -0.40240
C          2.73815       -0.73945        0.19173
C          3.03148        0.70017       -0.23887
C          4.30408        1.26458        0.39231
N          5.48734        0.55934       -0.04897
C          6.13903        0.72970       -1.23052
N          5.92579        1.60128       -2.14391
H          1.24439       -2.27394       -0.08929
H          1.46265       -1.21962       -1.49628
H          0.58725       -0.62913       -0.07008
H          3.55007       -1.40304       -0.12725
H          2.68076       -0.79713        1.28461
H          2.18934        1.33816        0.05694
H          3.09893        0.75010       -1.33253
H          4.23885        1.19261        1.48403
H          4.39168        2.33203        0.15914
H          5.73324       -0.26160        0.49450
H          6.95568       -0.00145       -1.36717
H          5.15024        2.20712       -1.87327
