15

C	0.674449	-0.078649	-0.023356
C	2.118094	0.364819	-0.008268
C	1.032614	1.362807	-0.226172
C	0.672209	2.473445	0.769979
N	-0.018069	3.496533	-0.004164
C	0.11045	3.160263	-1.226919
N	0.835564	2.018418	-1.497247
H	0.200479	-0.358428	0.923106
H	0.325127	-0.6536	-0.887371
H	2.74357	0.097922	-0.865365
H	2.650513	0.385211	0.948084
H	1.58213	2.908625	1.222902
H	0.042344	2.109496	1.59861
H	-0.291466	3.748188	-2.060416
H	0.620474	1.46928	-2.320821
