14

C	0.911852	-0.020074	0.004581
C	2.123949	-0.010472	0.020806
C	3.574535	0.008028	0.054145
C	4.307611	1.067108	0.918533
C	5.355643	-0.005684	1.267639
C	4.337278	-1.082889	0.850901
H	-0.162326	-0.030912	-0.009449
H	3.958437	0.045756	-0.979882
H	3.698258	1.344062	1.791657
H	4.639409	1.98665	0.413986
H	6.216558	0.027979	0.582044
H	5.736313	-0.032983	2.299028
H	4.693364	-1.959805	0.290011
H	3.736397	-1.429693	1.70465
