16
-1609.65
O          1.13866        0.06744        0.50490
C          2.30529        0.01891        0.11062
C          3.02875       -1.30251       -0.01952
C          3.99888       -1.27483       -1.19070
C          4.87334       -0.02517       -1.16374
N          4.03493        1.16918       -1.22109
C          3.14752        1.27514       -0.05456
H          2.29594       -2.10355       -0.16095
H          3.56353       -1.48403        0.91907
H          4.62968       -2.17065       -1.16716
H          3.43599       -1.30555       -2.13272
H          5.50844       -0.01103       -0.26988
H          5.53845       -0.03422       -2.03401
H          4.62367        2.00119       -1.26602
H          3.72216        1.43557        0.86364
H          2.47521        2.12640       -0.20086
