14
-1365.72
C          3.17592       -1.09325       -0.41046
O          2.34367        0.01760       -0.11232
C          3.06728        1.24448       -0.06347
C          3.31357        1.79174       -1.44956
C          3.08003        3.22195       -1.17567
N          2.52862        3.49923       -0.04612
O          2.29712        2.26100        0.60454
H          2.55331       -1.99183       -0.43367
H          3.93844       -1.21987        0.36358
H          3.64928       -0.97465       -1.38961
H          3.99843        1.12237        0.50427
H          2.60172        1.43728       -2.20001
H          4.33173        1.61271       -1.80176
H          3.34197        3.98540       -1.92016
