17
-1696.05
C          0.82183        0.64337        0.21771
C          2.22727        0.38702       -0.30210
C          3.23536        1.20245        0.43929
O          4.35712        1.61722       -0.34590
C          3.46773        2.65719        0.10110
C          3.83543        3.57179        1.18537
C          2.98957        4.15626        2.04461
H          0.10136        0.00209       -0.29821
H          0.53032        1.68545        0.05489
H          0.75696        0.44139        1.29118
H          2.25998        0.60341       -1.37731
H          2.47165       -0.67496       -0.18236
H          3.42468        0.84638        1.44312
H          2.84263        3.10847       -0.66299
H          4.89867        3.78208        1.28443
H          1.91985        3.98239        1.99250
H          3.35779        4.82091        2.81958
