15
-1483.76
N          1.53714       -1.09018       -0.64291
C          2.02717       -0.25354        0.31262
N          1.66380       -0.33229        1.54635
C          3.07223        0.76938       -0.08242
C          4.47066        0.21981        0.15676
C          4.84846       -0.86496       -0.82434
O          4.11583       -1.28487       -1.71723
H          2.17618       -1.23784       -1.43187
H          1.15060       -1.96659       -0.31868
H          0.94372       -1.05155        1.64149
H          2.92142        1.66685        0.52894
H          2.92780        1.05328       -1.13108
H          4.56869       -0.19405        1.16609
H          5.20536        1.02343        0.04301
H          5.86020       -1.28453       -0.68774
