15
-1520.58
C          0.99846        0.04365        0.16587
C          2.48858       -0.06128       -0.11852
N          2.73613       -1.13130       -1.10605
N          3.50253       -0.72142       -2.16179
C          3.64816        0.56055       -2.03635
C          3.06286        1.12930       -0.81518
C          3.09745        2.42398       -0.48745
H          0.79109        0.85283        0.87522
H          0.61848       -0.88713        0.60205
H          0.42228        0.24592       -0.74545
H          3.05209       -0.26812        0.79887
H          3.11130       -1.97655       -0.67434
H          4.18717        1.20260       -2.74782
H          2.65321        2.77880        0.43749
H          3.57216        3.15970       -1.12910
