13

C	0.921703	0.005316	-0.001444
N	2.350441	-0.113805	0.004381
C	3.03866	0.949957	0.006568
N	2.6192	2.272634	0.004215
C	3.617066	3.226414	0.007685
C	4.858507	2.707238	0.013048
S	4.820123	0.957619	0.013385
H	0.455458	-0.990231	-0.005378
H	0.53703	0.543022	-0.894405
H	0.529761	0.539362	0.890498
H	1.635128	2.502686	0.000548
H	3.351076	4.283057	0.006156
H	5.797557	3.25581	0.016681
