13
-1423.51
O          1.10195       -0.00103        0.53829
C          2.26948       -0.01024        0.21059
C          3.31009        1.08843       -0.05681
C          4.21007       -0.01822       -0.67859
C          3.27932       -1.12498       -0.10406
C          4.29758        0.01148       -2.12804
C          4.36160        0.03606       -3.32590
H          3.70410        1.53366        0.86186
H          2.96529        1.87746       -0.72995
H          5.20751       -0.04185       -0.22055
H          2.91315       -1.87468       -0.81006
H          3.66029       -1.61975        0.79453
H          4.41281        0.05800       -4.39111
