13

C	0.968567	-0.008517	0.152106
C	2.308093	-0.043565	0.058219
C	3.028371	-1.273285	-0.064904
C	3.673624	-2.295144	-0.173617
C	3.147466	1.197881	0.042413
C	2.842849	2.359524	0.875861
O	3.893037	1.479201	1.20752
H	0.437886	0.943591	0.226736
H	0.37674	-0.926572	0.148498
H	4.241652	-3.202512	-0.266053
H	3.703845	1.353877	-0.894282
H	1.972371	2.333756	1.544115
H	3.142358	3.360304	0.537528
