13
-1324.45
C          0.91506        0.00143       -0.09604
C          2.40314        0.06400       -0.19212
C          3.15126        1.03071        0.36123
C          4.62517        1.01026        0.21305
N          5.25151        2.05046        0.82433
O          5.24224        0.15033       -0.39628
H          0.61169       -0.93086        0.38993
H          0.47537        0.02650       -1.09775
H          0.50226        0.83631        0.47905
H          2.88513       -0.73707       -0.75163
H          2.70321        1.83991        0.92285
H          4.77428        2.77742        1.33522
H          6.25963        2.08650        0.75506
