12

C	0.884336	-0.020881	0.031983
C	2.095701	-0.010639	0.025814
C	3.543322	0.009865	0.022147
C	4.29108	1.012591	0.929275
O	5.12616	-0.015727	1.445235
C	4.320545	-1.030313	0.859878
H	-0.190136	-0.030824	0.038717
H	3.917295	0.050365	-1.013237
H	3.645446	1.466253	1.70353
H	4.857973	1.808411	0.418242
H	4.90979	-1.772846	0.296523
H	3.688689	-1.553585	1.600804
