16
-1590.86
O          2.20551       -0.34028        1.40919
C          2.46373       -0.01601        0.05341
C          2.98756        1.36893       -0.01705
C          4.14189        1.79118       -0.53987
C          4.27662        3.26077       -0.37870
N          2.96991        3.72642        0.11866
C          2.23011        2.51947        0.54756
H          1.95919       -1.27889        1.43098
H          1.53171       -0.10274       -0.51375
H          3.18528       -0.73597       -0.34713
H          4.89677        1.16495       -0.99116
H          5.06419        3.49960        0.34329
H          4.51556        3.74388       -1.33149
H          2.46514        4.13168       -0.66724
H          1.20438        2.55450        0.16620
H          2.20009        2.47356        1.64110
