13

C	0.992559	0.001503	-0.004089
C	2.478371	0.036334	-0.005439
N	3.229629	1.10483	-0.007601
C	4.533637	0.672133	-0.0092
C	4.55823	-0.701286	-0.008348
O	5.52242	-1.637093	-0.009074
N	3.252505	-1.100949	-0.005914
H	0.627069	1.035401	0.003413
H	0.589943	-0.515134	0.882981
H	0.588111	-0.502398	-0.897702
H	5.379059	1.359278	-0.010864
H	6.377687	-1.195385	-0.01087
H	2.9403	-2.062793	-0.004652
