13

N	1.000636	0.280369	0.08664
C	2.261061	0.219948	-0.01616
N	3.091673	1.240831	0.43145
C	3.79036	2.123956	-0.452786
C	2.661374	2.611858	0.41375
C	2.977001	3.412265	1.63114
O	2.405158	4.421965	1.93632
H	0.576478	-0.59056	-0.235774
H	2.838112	-0.632682	-0.419168
H	3.575676	2.072071	-1.527642
H	4.82882	2.360264	-0.19222
H	1.706783	2.846403	-0.071688
H	3.819967	2.990631	2.240968
