17
-1652.54
C          0.72744        0.94706       -0.43252
N          2.15975        1.01398       -0.19491
C          2.80065       -0.21566        0.25528
C          3.22302       -1.00134       -0.95019
C          2.80636       -2.24137       -1.24062
C          2.86358        2.18628       -0.25186
N          2.43591        3.37021       -0.51412
H          0.45722        1.48913       -1.34495
H          0.18549        1.38632        0.41146
H          0.37951       -0.08419       -0.55834
H          2.11873       -0.79239        0.89213
H          3.68257        0.00262        0.86931
H          3.92522       -0.51205       -1.62179
H          2.10811       -2.77604       -0.60441
H          3.16036       -2.74848       -2.13345
H          3.93919        2.06041       -0.03846
H          1.43205        3.34692       -0.68972
