17
-1728.41
C          0.98003       -0.02266        0.02142
C          2.49399        0.01954       -0.15545
C          3.05417       -1.24263       -0.81911
C          3.43580       -0.73688       -2.15550
C          3.27562        0.58319       -2.18043
C          3.57584        1.50858       -3.30700
O          2.81644        1.15160       -0.99955
H          0.62646        0.90893        0.47578
H          0.67897       -0.85902        0.65844
H          0.47012       -0.11316       -0.94443
H          2.96427        0.17827        0.82030
H          2.32426       -2.05541       -0.87111
H          3.94042       -1.60681       -0.28809
H          3.80213       -1.34407       -2.96915
H          3.80463        2.51236       -2.93590
H          2.71430        1.58039       -3.97863
H          4.44147        1.16234       -3.88310
