14

C	1.030089	-0.007803	0.167351
C	2.350647	-0.012761	-0.005256
C	3.222628	1.22813	-0.073094
N	4.467325	0.718262	-0.589056
C	4.561827	-0.638547	-0.69486
O	5.522688	-1.256764	-1.087511
C	3.23794	-1.209173	-0.200993
H	0.458621	-0.93896	0.20223
H	0.473888	0.92728	0.28106
H	3.346115	1.683188	0.928637
H	2.77981	1.996401	-0.730416
H	5.260157	1.301721	-0.821954
H	2.84718	-1.94741	-0.916769
H	3.433035	-1.748234	0.742561
