14
-1456.81
O          3.23898       -1.44395        0.63868
C          2.88620       -0.48966       -0.34783
C          2.98361        0.85820        0.28461
C          3.76009        1.85744       -0.16786
C          3.86752        3.20700        0.48783
C          3.47068        4.27162       -0.44633
N          3.16582        5.11770       -1.18125
H          3.19097       -2.31626        0.21312
H          1.85942       -0.67958       -0.67448
H          3.56067       -0.59700       -1.20300
H          2.37474        1.00015        1.17509
H          4.37626        1.69880       -1.05185
H          4.90498        3.36150        0.80492
H          3.24617        3.25729        1.38925
