16

C	0.974295	-0.118884	0.007442
C	2.491715	-0.029335	0.012216
C	3.007814	1.402079	0.003156
C	4.536323	1.480431	0.006558
C	5.055565	2.841642	0.000141
C	5.474614	3.978093	-0.004567
H	0.629205	-1.163539	0.014839
H	0.54804	0.366216	-0.885534
H	0.541602	0.380981	0.889081
H	2.89964	-0.567878	-0.862032
H	2.893362	-0.554338	0.897555
H	2.616215	1.947849	0.878925
H	2.620801	1.93499	-0.882529
H	4.937	0.940128	-0.869855
H	4.932614	0.950171	0.891078
H	5.846645	4.985664	-0.008705
