16

C	0.925087	0.074821	0.075031
C	2.411366	-0.008108	-0.002941
C	3.18639	-1.109293	-0.094621
C	4.644775	-0.716676	-0.102755
N	5.51516	-1.23905	-1.141289
C	4.578667	0.786519	-0.072559
C	3.294078	1.17583	0.01172
H	0.458923	-0.918561	0.018495
H	0.519754	0.692774	-0.743921
H	0.603333	0.550012	1.016967
H	2.838098	-2.144258	-0.126736
H	5.070725	-1.027611	0.876032
H	5.114189	-1.018875	-2.052422
H	5.552216	-2.255178	-1.085791
H	5.469186	1.415647	-0.099108
H	2.933184	2.204607	0.085357
