13
-1259.54
C          5.96860       -0.82877       -0.01742
O          5.75686        0.36339        0.72940
N          5.19557        1.32556       -0.12392
C          5.00080        2.41195        0.54850
C          4.41561        3.61226       -0.07899
C          4.22519        4.72368        0.63959
H          6.39280       -1.58368        0.64959
H          6.67281       -0.64351       -0.83426
H          5.01934       -1.20189       -0.41404
H          5.26244        2.48975        1.61909
H          4.15493        3.54516       -1.12879
H          4.48677        4.78875        1.69127
H          3.79463        5.60713        0.17786
