16

C	0.937799	0.003499	-0.015081
C	2.391682	0.004405	-0.000982
C	3.604431	-0.000179	0.017865
C	5.062479	0.018211	0.037445
C	5.802513	1.091652	0.872595
C	6.760307	-0.044151	1.2648
N	5.734065	-1.003078	0.853615
H	0.539509	1.028586	0.045166
H	0.533381	-0.56122	0.839922
H	0.543749	-0.454018	-0.936542
H	5.427592	0.047139	-1.011457
H	5.189008	1.43512	1.715935
H	6.209226	1.955829	0.330454
H	7.675044	-0.045252	0.638621
H	7.0667	-0.112917	2.322032
H	6.040525	-1.841248	0.365412
