16
-1564.48
O          0.99757        0.01990       -0.09588
C          2.42313       -0.05725        0.04186
C          3.12880       -0.80245       -1.04458
C          3.22905        0.70404       -0.98559
C          4.52043        1.42738       -0.62034
C          5.86556        1.04757       -1.19580
N          5.17359        2.24015       -1.65195
H          0.66256        0.87992        0.21061
H          2.82647       -0.14553        1.04626
H          2.53057       -1.23699       -1.83754
H          3.99523       -1.39145       -0.77128
H          2.63857        1.23020       -1.73779
H          4.53015        1.87346        0.37206
H          5.91357        0.22807       -1.90253
H          6.74944        1.19385       -0.58821
H          5.58044        3.08234       -1.24272
