18

C	2.282952	-0.7133	-0.953467
O	1.969682	0.439674	-0.224286
C	3.055559	1.269823	-0.024498
C	3.411332	2.306754	-1.074841
C	2.640306	2.400638	-2.364979
C	2.77917	2.721173	0.222347
N	3.49545	3.532164	1.157512
H	1.358715	-1.296854	-1.071735
H	3.02927	-1.340684	-0.427588
H	2.68381	-0.475443	-1.956373
H	3.892464	0.813761	0.529683
H	4.483308	2.527608	-1.160273
H	1.615735	2.023713	-2.230318
H	3.115126	1.808202	-3.163305
H	2.575456	3.443201	-2.713592
H	1.714193	2.976175	0.144025
H	4.498299	3.386453	1.069692
H	3.244675	3.282772	2.113027
