15
-1451.77
C          1.17895       -0.15795       -0.62002
C          2.52500       -0.18353        0.08549
N          3.04772        1.17696        0.22973
N          4.25940        1.27660        0.82803
C          4.70693        2.48742        0.88678
C          6.03742        2.73484        1.52219
O          6.43923        3.88025        1.65746
H          0.79343       -1.17625       -0.73304
H          1.26361        0.28377       -1.61855
H          0.44282        0.41931       -0.05048
H          3.22748       -0.79125       -0.49579
H          2.41216       -0.64741        1.07187
H          2.33975        1.76140        0.68333
H          4.19087        3.38280        0.50095
H          6.58272        1.83317        1.83933
