16
-1609.12
C          0.68453        0.15807        1.09094
N          1.95987       -0.28621        0.58839
C          3.00855        0.59879        0.44067
O          2.94640        1.77751        0.78138
C          4.26248       -0.01323       -0.17623
C          4.58871        0.66890       -1.47274
C          4.69234        0.04762       -2.65498
H          0.11018       -0.71696        1.40359
H          0.15561        0.68221        0.29080
H          0.82502        0.83415        1.93877
H          1.99809       -1.16862        0.09566
H          4.13450       -1.09203       -0.31560
H          5.08441        0.12451        0.53435
H          4.75070        1.74554       -1.42416
H          4.54456       -1.02238       -2.75851
H          4.93502        0.60859       -3.55313
