15

C	1.145214	-1.176411	0.641092
C	2.459265	-0.586899	0.282399
C	2.762426	0.714593	0.066216
C	1.859466	1.866014	0.165013
C	0.832236	2.029064	1.009601
C	4.156299	1.012006	-0.374316
O	5.046293	0.203944	-0.462202
H	1.017353	-2.16017	0.165239
H	0.304792	-0.523919	0.361136
H	1.079883	-1.34867	1.730577
H	3.301558	-1.277298	0.146363
H	2.092982	2.694474	-0.51767
H	0.571277	1.282479	1.763313
H	0.232997	2.942934	0.989705
H	4.33843	2.087579	-0.635556
