19
-1729.59
N          2.18197        0.87428        1.25381
C          1.75660        2.19063        0.76306
C          2.88664        3.23679        0.85675
N          4.10928        2.76264        0.19205
C          5.15365        3.80135        0.22095
C          6.38912        3.34975       -0.56300
O          6.05831        3.17103       -1.94163
H          3.08227        0.68227        0.80337
H          2.42276        0.96316        2.24038
H          0.88726        2.53013        1.33701
H          1.43793        2.08396       -0.28077
H          3.10332        3.42658        1.91300
H          2.53626        4.17200        0.40880
H          3.91015        2.56189       -0.79399
H          5.44025        4.01003        1.25582
H          4.76558        4.72257       -0.23186
H          6.78190        2.40656       -0.16983
H          7.17209        4.11185       -0.49808
H          6.84716        2.79172       -2.36808
