13

C	1.010039	0.01294	-0.209868
C	2.324567	-0.062159	0.042982
C	3.202372	-1.21655	0.194529
C	4.468736	-0.830859	0.444111
C	4.608047	0.659543	0.492965
C	3.188196	1.155984	0.227804
O	2.828244	2.303472	0.176173
H	0.538518	0.996931	-0.286851
H	0.390845	-0.877632	-0.343815
H	2.862528	-2.250849	0.113338
H	5.307462	-1.513609	0.595727
H	4.965928	1.041316	1.465087
H	5.298157	1.066431	-0.266783
