12
-1255.13
C          0.92935        0.06057       -0.00600
C          2.41673        0.01914       -0.00120
N          3.18975        1.08224        0.00570
C          4.50742        0.69983        0.00840
O          5.50475        1.59865        0.01530
C          4.73528       -0.65911        0.00358
S          3.23645       -1.49321       -0.00479
H          0.57579        1.09636        0.00194
H          0.52274       -0.44086        0.87809
H          0.52932       -0.42506       -0.90186
H          6.36602        1.15323        0.01624
H          5.67156       -1.19546        0.00443
