15

N	2.094312	-0.373286	-1.358555
C	2.165428	0.170642	-0.020427
C	3.25337	1.22637	0.055814
C	2.984011	2.547703	-0.696419
C	3.053035	3.217566	0.684414
O	2.971917	4.334751	1.11368
N	3.27781	2.005997	1.285411
H	1.282082	-0.975163	-1.466109
H	2.909958	-0.949101	-1.559485
H	2.34102	-0.578044	0.783758
H	1.206503	0.660361	0.220288
H	4.234597	0.777778	-0.191208
H	2.007047	2.60187	-1.197037
H	3.770219	2.876087	-1.390048
H	3.478803	1.76008	2.248652
