18
-1781.29
C          0.82464       -0.41817        0.11834
C          2.31793       -0.13916       -0.06207
N          2.90886       -1.15924       -0.92774
C          2.67873        1.20877       -0.62432
C          1.83968        2.18867       -0.99756
C          2.30177        3.45177       -1.52280
C          1.47133        4.42923       -1.90401
H          0.37037        0.30908        0.80057
H          0.66375       -1.41262        0.55041
H          0.28267       -0.37815       -0.83365
H          2.79513       -0.21861        0.92215
H          2.44987       -1.12430       -1.83754
H          2.70391       -2.08215       -0.54906
H          3.75222        1.37582       -0.71536
H          0.76404        2.05599       -0.91710
H          3.37549        3.60575       -1.61046
H          0.39245        4.33004       -1.84074
H          1.86370        5.36289       -2.29482
