16
-1565.84
C          0.99811       -0.46719        0.18965
C          2.39040       -0.13830       -0.35012
C          2.87709       -1.26922       -1.25897
C          2.36323        1.20374       -1.08978
C          3.75455        1.67706       -1.42421
O          4.10072        2.00386       -2.55519
H          0.65268        0.31250        0.87707
H          1.00660       -1.41515        0.73852
H          0.26652       -0.55222       -0.62167
H          3.07894       -0.06791        0.50145
H          2.23876       -1.37172       -2.14345
H          2.87055       -2.22598       -0.72536
H          3.90209       -1.08990       -1.59973
H          1.91003        1.97795       -0.46025
H          1.77724        1.13506       -2.01311
H          4.45152        1.76453       -0.57310
