18

N	1.083614	0.048741	0.377124
C	2.51164	0.013888	0.108603
C	2.84484	-1.298812	-0.62038
C	2.524425	-1.026324	-2.084829
C	3.589351	-0.374027	-2.917686
C	2.523783	0.467691	-2.276126
C	2.845353	1.100489	-0.927855
H	0.826094	0.927693	0.82208
H	0.825646	-0.691298	1.02717
H	3.137232	0.128923	1.020173
H	2.261155	-2.140014	-0.21541
H	3.909365	-1.553728	-0.483504
H	1.779401	-1.649243	-2.58677
H	4.605438	-0.321377	-2.50959
H	3.550029	-0.514364	-4.00207
H	1.778011	0.944067	-2.918133
H	3.909873	1.381349	-0.860646
H	2.262251	2.017027	-0.749193
