21

C	1.077253	-0.194254	0.400553
C	2.584222	-0.144118	0.21375
C	3.20084	1.237227	0.456456
N	2.901309	1.810766	1.762625
C	4.730147	1.202309	0.275609
C	5.299762	2.604644	0.083776
N	5.315512	0.480265	1.399153
H	0.678315	-1.19988	0.198309
H	0.562412	0.507408	-0.276834
H	0.787606	0.069267	1.430003
H	2.840091	-0.468436	-0.809945
H	3.086564	-0.855048	0.892093
H	2.798226	1.934842	-0.300647
H	3.005198	1.093119	2.479535
H	1.938668	2.131873	1.811787
H	4.935098	0.607731	-0.632421
H	5.011218	3.237458	0.938161
H	4.915806	3.078816	-0.834218
H	6.399237	2.577858	0.017246
H	5.314836	1.093757	2.214266
H	6.292113	0.266376	1.211017
