18
-1776.84
C          1.01707        0.00185        0.07772
C          2.53074        0.01038       -0.07315
C          3.22212        1.04475       -1.02135
C          2.86829        0.06683       -2.17726
C          3.23437       -0.97798       -1.07533
N          4.68058       -0.72490       -0.85453
C          4.69565        0.74553       -0.80384
H          0.69495        0.84795        0.69431
H          0.69241       -0.91713        0.57727
H          0.48413        0.06746       -0.87425
H          2.94884       -0.01554        0.94455
H          2.86398        2.07154       -1.05557
H          3.50915        0.09595       -3.06569
H          1.83026        0.06927       -2.52318
H          2.90156       -2.01047       -1.16401
H          5.03294       -1.09950        0.02614
H          5.32537        1.15904       -1.59764
H          5.05019        1.11244        0.16519
