19
-1788.72
C          0.89222       -0.03940       -0.21550
C          2.37194        0.07077        0.04187
C          2.75846       -0.02682        1.49341
N          3.28871       -0.54154       -0.93076
C          3.19066        0.92233       -0.92071
C          4.37920        1.73303       -0.50649
N          5.30091        1.78513       -1.63872
H          0.64772        0.04562       -1.28086
H          0.35585        0.75601        0.31386
H          0.51189       -1.00419        0.13837
H          3.83013       -0.20159        1.63539
H          2.23148       -0.85797        1.97528
H          2.48914        0.89583        2.01819
H          2.78468       -0.92051       -1.73355
H          2.67795        1.37515       -1.76378
H          4.89965        1.30628        0.35651
H          4.06298        2.74721       -0.24261
H          5.53404        0.81976       -1.88127
H          6.17303        2.21212       -1.33307
