14
-1402.78
C          2.54098       -0.46778       -1.64600
N          2.32895        0.09661       -0.31879
C          3.17425        1.29912       -0.15261
C          2.38789        2.55989       -0.53844
O          2.51364        3.08478        0.81288
C          3.11647        1.95105        1.26229
O          3.46004        1.67520        2.38874
H          1.88514       -1.33355       -1.78260
H          3.57460       -0.80379       -1.77742
H          2.29838        0.25581       -2.43097
H          2.52355       -0.62160        0.38271
H          4.19600        1.22898       -0.53917
H          1.33583        2.43525       -0.81538
H          2.88329        3.21055       -1.26567
