11
-1161.48
O         -1.15843        0.70835        0.73001
C         -1.06298       -0.41845       -0.15631
C         -0.12709       -1.46449        0.25633
N          1.15674       -1.29486        0.26459
N          1.73472       -0.05558       -0.06673
C          1.00570        0.96366       -0.39289
C         -0.45117        0.89285       -0.50703
H         -1.95809       -0.73052       -0.67616
H         -0.54494       -2.43986        0.55052
H          1.49168        1.92578       -0.61723
H         -0.91893        1.49749       -1.27170
