13

C	0.958225	-0.00964	0.04542
C	2.167495	0.01451	0.002642
C	3.630739	0.007589	-0.023108
C	4.221648	-1.25909	-0.702331
C	4.747383	-0.682467	-1.987912
C	4.654758	0.64684	-1.921088
O	4.110026	1.133833	-0.779596
H	-0.115873	-0.023745	0.079856
H	4.000609	0.131719	1.007125
H	3.449651	-2.030311	-0.847255
H	5.024567	-1.707838	-0.091808
H	5.168208	-1.254336	-2.812789
H	4.960725	1.406884	-2.641285
