19
-1861.74
C          3.47239       -0.67309       -1.22020
C          2.99377        0.11874       -0.00827
C          3.29871        1.63327       -0.05621
C          2.67344        2.30764       -1.28339
C          2.74473        2.29518        1.21665
C          4.81038        1.83628       -0.03722
O          5.44454        2.43283       -0.90285
H          3.25684       -1.73733       -1.07690
H          4.55202       -0.56984       -1.36729
H          2.96396       -0.35678       -2.13568
H          3.45552       -0.32104        0.88510
H          1.91164       -0.03361        0.09522
H          3.11543        1.94693       -2.21788
H          2.83028        3.39259       -1.25948
H          1.59348        2.12746       -1.32603
H          3.17873        1.85003        2.11954
H          1.65614        2.18757        1.27854
H          2.98021        3.36560        1.24067
H          5.33665        1.40016        0.83055
