13

C	1.910056	-0.633159	-1.228016
C	2.190412	0.070362	-0.12226
C	1.487825	-0.186752	1.104133
N	0.955643	-0.381651	2.11576
C	3.231363	1.141935	-0.047428
C	3.511997	2.057181	-1.173985
N	2.747468	2.510659	-0.026388
H	2.45477	-0.444065	-2.155634
H	1.139177	-1.406761	-1.232923
H	4.075535	0.887936	0.608984
H	2.943857	1.970972	-2.106316
H	4.546757	2.393584	-1.303825
H	3.305589	3.089041	0.598938
