16

N	0.810003	0.001285	-0.047934
C	2.219907	0.017948	0.152609
C	3.103422	-0.846835	-0.706205
C	2.508602	-1.408695	-1.978982
O	2.024848	-0.32705	-2.735256
C	2.523282	0.896993	-2.255866
C	3.111679	0.645007	-0.884674
H	0.381959	0.86832	0.266349
H	0.373558	-0.760631	0.464538
H	2.601192	0.139739	1.180306
H	3.939341	-1.377172	-0.242402
H	3.290882	-1.968816	-2.530354
H	1.666282	-2.09762	-1.791334
H	3.312764	1.299938	-2.921925
H	1.690213	1.621958	-2.240087
H	3.954184	1.260472	-0.557463
