13
-1376.91
C          1.59329       -1.01171        0.66968
C          2.60872       -0.59817        0.17897
C          3.85168       -0.09713       -0.41794
O          4.60450        0.58440        0.58200
C          5.82399        1.12335        0.07622
C          6.85063        0.08159       -0.05440
C          7.68665       -0.77421       -0.15843
H          0.69715       -1.37752        1.11487
H          3.61658        0.59422       -1.23508
H          4.43007       -0.93484       -0.82205
H          6.16385        1.87521        0.79599
H          5.65068        1.64263       -0.87362
H          8.42506       -1.53779       -0.24204
