16
-1488.72
C          3.57610       -1.96514       -1.12907
C          4.05490       -1.06835       -0.00372
O          4.08737        0.27392       -0.48154
C          4.47369        1.18989        0.54466
O          5.82590        0.98637        0.96082
N          6.10844        1.84317        2.03854
C          7.33284        1.65412        2.39870
H          3.55197       -3.01010       -0.81004
H          4.23302       -1.87506       -1.99947
H          2.57322       -1.67131       -1.45390
H          5.05782       -1.37802        0.31116
H          3.37046       -1.14585        0.84893
H          3.79077        1.09919        1.39820
H          4.38315        2.19928        0.13044
H          7.75526        2.23429        3.23313
H          7.99838        0.92487        1.90681
