14

C	2.012223	0.195574	-0.897373
O	3.290577	0.638838	-0.531265
C	3.427652	1.900597	-0.061232
C	2.436408	2.777648	0.142943
C	4.883483	2.158252	0.21408
O	5.694972	1.828372	-0.876904
H	2.124511	-0.826046	-1.282039
H	1.574399	0.835899	-1.683421
H	1.32748	0.181902	-0.030836
H	1.385278	2.544857	-0.031974
H	2.678017	3.776024	0.508155
H	5.164208	1.581723	1.121509
H	5.033087	3.222333	0.444814
H	5.409024	0.955306	-1.171988
