10
-1103.89
O          0.92062        0.01071       -0.00545
C          2.26132       -0.02171       -0.00012
C          3.09183        1.07022        0.00367
O          4.38919        0.65691        0.00867
C          4.36856       -0.70382        0.00800
C          3.07289       -1.16981        0.00263
H          0.60165        0.92939       -0.00632
H          2.94491        2.14047        0.00354
H          5.33680       -1.18449        0.01166
H          2.75922       -2.20294        0.00094
