17

O	1.014854	0.102562	0.084839
C	2.414299	0.012967	0.03038
C	3.02254	-1.120812	0.910023
C	3.813077	-0.26138	1.900235
C	4.490306	0.750788	0.947161
C	3.035317	1.220163	0.732597
C	2.810457	0.870308	2.220388
H	0.64744	-0.702645	-0.292379
H	2.763142	-0.049775	-1.019687
H	3.665225	-1.813414	0.34398
H	2.222609	-1.702499	1.395001
H	4.372805	-0.784732	2.688782
H	5.049944	0.359025	0.080448
H	5.096611	1.499997	1.477467
H	2.782876	2.203345	0.312308
H	3.232446	1.629076	2.896204
H	1.790283	0.599714	2.531292
