17

N	0.912954	0.04466	-0.671322
C	2.2392	0.036499	-0.136645
C	3.255132	-0.779109	-0.890828
C	3.295014	0.72107	-0.952071
C	2.377191	0.07284	1.362519
C	1.433192	0.811108	2.231036
N	1.352155	-0.637094	2.110203
H	0.481325	0.958155	-0.540119
H	0.348431	-0.628959	-0.152349
H	2.885566	-1.310455	-1.770419
H	4.033382	-1.297914	-0.323301
H	4.098003	1.244706	-0.424541
H	2.964366	1.199536	-1.87707
H	3.412968	0.005114	1.723147
H	0.59488	1.359958	1.787023
H	1.821577	1.253554	3.15552
H	1.738226	-1.104199	2.927827
