17

C	1.929474	-0.398805	-1.229765
O	1.794055	0.658486	-0.32427
C	2.996831	1.232431	0.027658
C	3.635112	2.247511	-0.894025
C	2.996619	2.667837	0.411701
C	1.706792	3.441618	0.404486
O	3.854168	2.95979	1.46862
H	0.92218	-0.770431	-1.463001
H	2.522734	-1.23186	-0.80528
H	2.417496	-0.077471	-2.169872
H	3.679806	0.590248	0.603953
H	3.099871	2.486276	-1.817736
H	4.726469	2.268082	-0.955471
H	1.029495	3.072473	-0.37675
H	1.896418	4.514033	0.230673
H	1.205996	3.331251	1.378565
H	4.193443	3.850733	1.326624
