14

C	4.260075	-1.125839	0.52551
N	3.698821	-0.079165	-0.30894
S	3.523092	1.443938	0.345729
O	2.367947	2.037371	-0.310937
O	3.610203	1.37451	1.798612
C	4.977608	2.29944	-0.18562
C	5.825261	1.840556	-1.100276
H	4.357901	-2.037419	-0.080792
H	3.655713	-1.343344	1.420783
H	5.266706	-0.834675	0.856438
H	2.839327	-0.308394	-0.803383
H	5.086805	3.257385	0.332217
H	5.658364	0.873508	-1.582031
H	6.704206	2.423789	-1.387439
