20
-1848.92
C          3.55111       -2.51071       -1.15213
N          4.15845       -1.27818       -1.62766
C          4.14415       -0.23897       -0.58797
C          4.65758        1.12251       -1.11579
C          6.08843        1.01975       -1.64361
O          3.74858        1.56944       -2.13650
C          3.92011        2.93469       -2.49117
H          3.57011       -3.25931       -1.95054
H          2.50758       -2.36119       -0.85601
H          4.10851       -2.92143       -0.30364
H          3.63465       -0.91568       -2.42883
H          4.76270       -0.55557        0.25986
H          3.11562       -0.10088       -0.23100
H          4.62674        1.83178       -0.27890
H          6.12611        0.47397       -2.59224
H          6.74286        0.52412       -0.91965
H          6.50326        2.01387       -1.83739
H          3.11682        3.21139       -3.17986
H          4.87318        3.08856       -3.00416
H          3.85539        3.57746       -1.60791
