13
-1253.73
O          3.04506       -0.94728       -0.57151
C          2.36695        0.10124        0.10244
C          3.24894        1.30344        0.11075
C          3.28971        2.23154       -1.07559
C          2.66080        2.68684        0.21345
H          2.44378       -1.71027       -0.57817
H          2.15592       -0.21898        1.12786
H          1.41857        0.29213       -0.41038
H          4.18197        1.10917        0.62755
H          2.64072        2.02004       -1.91776
H          4.25041        2.64944       -1.35264
H          3.19519        3.42093        0.80528
H          1.58283        2.79745        0.23778
