17

C	2.625587	-0.66236	0.548072
N	3.08993	0.255991	-0.469361
N	3.36171	1.534389	-0.023721
C	2.286637	2.379808	0.436185
C	4.655244	2.010024	-0.069676
C	5.693643	1.049932	-0.598205
O	4.930819	3.134011	0.300096
H	2.458086	-1.644496	0.0819
H	1.687845	-0.361384	1.055643
H	3.404261	-0.784142	1.316826
H	2.448666	0.293428	-1.261176
H	1.802172	1.973916	1.339573
H	1.51953	2.50085	-0.349485
H	2.713598	3.360645	0.676768
H	5.750371	0.143819	0.02148
H	6.658714	1.569921	-0.590655
H	5.446636	0.718439	-1.615875
