13
-1276.14
C          1.02900       -0.18307       -0.41507
O          2.28835        0.07384        0.21201
C          2.90818        1.24749       -0.05361
N          2.44700        2.44087       -0.26621
N          1.11264        2.65115       -0.14276
C          4.34399        1.18546       -0.05112
C          5.54469        1.12952       -0.04706
H          0.95276       -1.26279       -0.57415
H          0.95027        0.30369       -1.39219
H          0.21513        0.11885        0.24939
H          0.90894        3.63686       -0.32602
H          0.80802        2.48172        0.81959
H          6.60853        1.08464       -0.04396
