15
-1429.95
C          0.94086        0.31058       -0.30109
C          2.35768        0.09187        0.10126
N          3.12396       -0.99229       -0.49986
C          3.48779        0.39054       -0.85316
C          4.80603        0.81166       -0.34054
N          5.48640        1.65226       -1.04847
O          6.69636        1.91873       -0.39281
H          0.63195        1.32980       -0.04780
H          0.28461       -0.38506        0.23293
H          0.78553        0.16726       -1.37595
H          2.51438        0.25388        1.16143
H          2.62192       -1.42801       -1.27508
H          3.24645        0.69867       -1.86393
H          5.16465        0.40373        0.62154
H          7.14848        2.51236       -1.02117
