15

C	0.968321	-0.003759	0.056251
C	2.493329	-0.002163	0.113864
O	2.835507	-0.002532	1.484572
C	3.0605	1.178739	-0.654749
C	3.773248	0.738759	-1.70493
C	3.774833	-0.738379	-1.705721
C	3.063037	-1.181016	-0.656013
H	0.609947	-0.003576	-0.982513
H	0.581078	0.886206	0.574269
H	0.582973	-0.895115	0.573293
H	3.798154	-0.001461	1.53917
H	2.867174	2.213225	-0.365789
H	4.276481	1.356366	-2.451744
H	4.279393	-1.354109	-2.453192
H	2.871936	-2.216225	-0.368157
