17
-1665.68
C          1.05875       -0.03305       -0.06726
N          2.51487       -0.11252       -0.12490
C          3.11544        1.22669       -0.04949
C          4.65548        1.18782        0.03119
C          5.29437        0.53969       -1.19844
C          5.16421        2.56403        0.18625
N          5.55950        3.64950        0.30079
H          0.63661       -1.04015       -0.14002
H          0.65654        0.56176       -0.89380
H          0.72336        0.39679        0.88201
H          2.77776       -0.56310       -1.00194
H          2.73433        1.74053        0.84347
H          2.80229        1.82040       -0.91882
H          4.94963        0.60938        0.91651
H          4.98256        1.04122       -2.12176
H          5.02497       -0.51824       -1.27772
H          6.38794        0.59495       -1.14620
