18

C	1.230859	0.122322	0.208784
N	2.610863	0.030454	-0.197852
C	2.79555	-0.703053	-1.425966
C	3.275906	1.287726	-0.204414
C	3.746629	1.866885	1.109813
C	4.736721	1.342337	0.114302
O	5.621687	2.15812	-0.567803
H	1.160354	0.636894	1.178917
H	0.801695	-0.885119	0.326448
H	0.594204	0.678312	-0.516356
H	2.375409	-1.71658	-1.330102
H	3.86895	-0.798485	-1.647431
H	2.310442	-0.219169	-2.3037
H	2.932077	2.031633	-0.952297
H	3.56548	1.280594	2.01427
H	3.670597	2.951171	1.241666
H	5.203474	0.382042	0.352563
H	5.200701	3.008637	-0.726932
