18
-1779.73
C          1.01021        0.00349        0.05134
C          2.52883       -0.00156       -0.05341
C          3.23731       -0.96520       -1.06450
C          4.73456       -0.75290       -0.85510
C          4.74155        0.77533       -0.81221
C          3.24632        1.01249       -1.00754
N          2.82479        0.05627       -2.11487
H          0.67523        0.85830        0.64805
H          0.66201       -0.90864        0.54714
H          0.51603        0.06355       -0.92344
H          2.94170       -0.03466        0.96493
H          2.85000       -1.97698       -1.18590
H          5.09020       -1.19367        0.08177
H          5.33191       -1.14444       -1.68502
H          5.34153        1.20701       -1.62027
H          5.10229        1.16015        0.14696
H          2.86782        2.03274       -1.07122
H          3.41867        0.07717       -2.94321
