15
-1581.59
C          0.25186        1.39311        0.77136
O          1.20409        0.46862        0.15007
C          0.40365       -0.31772       -0.76881
C         -0.62173        0.69035       -1.26622
C         -1.09590        0.99927        0.14675
C         -1.41489       -0.40400        0.61790
C         -0.47802       -1.19901        0.07688
H          0.55213        2.41095        0.50227
H          0.29082        1.27184        1.85859
H          0.99933       -0.82247       -1.53010
H         -0.16800        1.56013       -1.75461
H         -1.39292        0.26021       -1.91638
H         -1.90939        1.71764        0.24296
H         -2.18138       -0.68660        1.32288
H         -0.33701       -2.25406        0.24886
