11
-1159.98
O          2.42369       -0.50015        1.35669
C          2.34241        0.02279        0.03924
C          2.87829        1.42357        0.03398
C          2.07603        2.49899       -0.06770
C          4.29381        1.60098        0.08864
N          5.44437        1.75449        0.09993
H          2.13065       -1.42638        1.31582
H          1.29423       -0.01092       -0.27803
H          2.91962       -0.61782       -0.63651
H          0.99603        2.39766       -0.11890
H          2.47637        3.50947       -0.08430
