15
-1539.75
C          1.73486       -1.68447        0.79067
C          3.05526       -1.03789        1.11325
O          3.60286       -1.20727        2.20360
C          3.64246       -0.12241        0.05597
C          5.16060       -0.06292        0.15097
C          5.79949       -1.35240       -0.30249
O          5.20488       -2.23501       -0.91421
H          0.99891       -0.91381        0.54959
H          1.38104       -2.25211        1.65546
H          1.85903       -2.36635       -0.05394
H          3.21548        0.87406        0.21490
H          3.32879       -0.47099       -0.93433
H          5.49211        0.13705        1.17510
H          5.54778        0.73492       -0.49129
H          6.87999       -1.43999       -0.09628
