12
-1326.29
N          1.00000        0.00000        0.00000
C          2.15101        0.00000        0.00000
C          3.59501        0.00000        0.00000
C          4.16129       -1.24842       -0.69482
C          4.63217       -0.68874       -1.98497
C          4.57561        0.63545       -1.91029
O          4.10063        1.15714       -0.72554
H          3.97055        0.06347        1.02773
H          3.42469       -2.04709       -0.82714
H          5.01528       -1.65307       -0.14022
H          4.99193       -1.25973       -2.82680
H          4.87362        1.36645       -2.64482
