17
-1729.11
C          0.96017        0.01078       -0.04991
C          2.48222       -0.01387       -0.00787
O          2.98432        0.12614       -1.32739
C          3.04595       -1.28668        0.64485
C          3.40088       -0.89807        2.08131
C          3.55004        0.58568        1.99906
C          3.04547        1.06909        0.85884
H          0.51936       -0.09407        0.94659
H          0.57963       -0.79877       -0.68237
H          0.59675        0.94629       -0.49026
H          3.94388        0.26855       -1.25732
H          3.94822       -1.62811        0.11983
H          2.33872       -2.12323        0.62313
H          4.32676       -1.38312        2.40266
H          2.60006       -1.16054        2.77975
H          3.97659        1.18942        2.78890
H          3.00599        2.11846        0.59752
