10
-1148.1
O          2.69234       -1.13975        0.12387
C          2.19540       -0.02251        0.01932
C          2.94116        1.21931        0.01265
C          2.40922        2.48394       -0.10311
O          3.43164        3.38371       -0.06727
C          4.54234        2.60959        0.06983
N          4.31472        1.31770        0.12303
H          1.10247        0.09092       -0.07926
H          1.41525        2.89408       -0.20997
H          5.49146        3.12447        0.12106
