11
-1230.86
O          0.96134        0.03631       -0.00246
C          2.31839        0.01093       -0.00009
C          3.03666        1.18481        0.00287
N          4.38565        1.23380        0.00530
C          5.00860        0.04411        0.00486
N          4.41431       -1.16153        0.00206
C          3.06534       -1.14609       -0.00031
H          0.62307       -0.87531       -0.00402
H          2.53432        2.14720        0.00327
H          6.09320        0.05770        0.00690
H          2.60214       -2.12712       -0.00260
