17

C	1.009632	0.025933	-0.051155
C	2.514033	-0.020089	-0.027088
C	3.331623	-0.755984	-1.031486
C	2.740734	-1.531752	-2.178327
C	3.315611	0.763303	-1.053082
C	4.514626	1.498046	-0.612037
O	4.896916	2.54414	-1.067833
H	0.638442	0.910218	0.489103
H	0.581047	-0.866487	0.432242
H	0.612378	0.076002	-1.074742
H	2.94019	-0.004691	0.984054
H	4.258096	-1.189817	-0.635271
H	1.843793	-1.045516	-2.586984
H	2.455259	-2.546629	-1.859761
H	3.467666	-1.629313	-2.999263
H	2.759481	1.249836	-1.861163
H	5.076472	0.990069	0.222031
