19

C	1.327522	-0.31754	2.089467
C	2.03151	-0.859182	0.856155
C	2.726703	0.226896	0.063986
O	3.34077	-0.361273	-1.055788
C	4.017062	0.427152	-1.919199
C	4.579773	-0.394049	-3.033079
C	4.168492	1.756422	-1.803464
H	0.827941	-1.122314	2.648657
H	0.560011	0.426687	1.822046
H	2.036724	0.171697	2.776944
H	1.312787	-1.366353	0.191263
H	2.780674	-1.617607	1.137182
H	3.484623	0.741675	0.686758
H	2.000046	0.997019	-0.261298
H	5.250221	-1.169355	-2.629403
H	5.135719	0.224219	-3.74894
H	3.767698	-0.916161	-3.563533
H	3.749047	2.334819	-0.980309
H	4.735369	2.297098	-2.561477
