15
-1582.74
C          1.02682        0.01191        0.11541
C          2.36244        0.02672        0.04888
C          3.22100        1.24202        0.02362
C          4.39647        0.72514       -0.77847
O          4.54622       -0.66196       -0.43741
C          3.26729       -1.08670       -0.10145
C          3.00879       -2.38233        0.09229
H          0.45989       -0.91207        0.08686
H          0.46188        0.93498        0.19574
H          3.53328        1.49620        1.04361
H          2.75761        2.11733       -0.43939
H          4.22070        0.80323       -1.85908
H          5.32144        1.25911       -0.53986
H          2.03008       -2.73979        0.38601
H          3.79543       -3.11827       -0.03435
