16

C	0.949186	0.006015	0.024873
C	2.403227	0.005499	0.015852
C	3.616949	0.013455	0.012087
C	5.091689	-0.001605	-0.036648
N	5.638602	-0.793451	-1.135514
C	5.61545	1.410866	-0.114022
C	6.326483	2.012664	0.836786
H	0.551617	1.032908	0.009507
H	0.555383	-0.490747	0.925795
H	0.543207	-0.522467	-0.85238
H	5.458776	-0.44542	0.90579
H	5.29946	-0.413097	-2.019158
H	5.261483	-1.73889	-1.085802
H	5.35786	1.952159	-1.033625
H	6.590169	1.497946	1.766224
H	6.673219	3.042933	0.723883
