17

C	1.031558	-0.28758	0.134859
C	2.513859	0.009232	-0.091081
C	3.071161	-0.755591	-1.288673
C	2.726453	1.498465	-0.250775
N	2.330372	2.255753	-1.206697
N	3.36024	2.118359	0.791113
O	3.669807	3.43925	0.563111
H	0.647232	0.25801	1.009057
H	0.870792	-1.363964	0.29987
H	0.434109	0.01254	-0.74071
H	3.06389	-0.307038	0.813113
H	2.547117	-0.473467	-2.215426
H	2.939933	-1.839797	-1.1505
H	4.142871	-0.554031	-1.435867
H	1.808676	1.756456	-1.922507
H	4.138796	1.626959	1.220741
H	3.249842	3.567123	-0.324267
