17
-1641.27
N          1.01137        0.01846       -0.05071
C          2.46048        0.00456        0.04183
C          3.00594        1.12565        0.91861
C          4.42913        0.66061        1.18855
C          4.30484       -0.84826        1.38550
C          2.99895       -1.26461        0.70207
H          0.69640       -0.74401       -0.64840
H          0.70145        0.88275       -0.49236
H          2.88464        0.09442       -0.96717
H          2.45013        1.20304        1.86093
H          2.97690        2.10030        0.42183
H          5.06446        0.87058        0.31983
H          4.87380        1.15752        2.05533
H          5.16902       -1.37499        0.96939
H          4.25606       -1.09062        2.45415
H          3.16081       -2.06016       -0.03204
H          2.30438       -1.65424        1.45573
