15

C	7.060983	-0.191926	1.125139
N	6.333467	0.979298	0.707642
N	5.220535	0.710334	-0.01519
C	4.26038	1.531813	-0.044334
O	3.156258	1.360605	-0.805572
C	3.093645	0.320216	-1.681367
C	1.959421	0.030109	-2.315629
H	7.99964	0.123938	1.603573
H	7.315246	-0.792441	0.239707
H	6.504798	-0.84251	1.829754
H	6.195747	1.655013	1.461626
H	4.199857	2.473354	0.523168
H	4.030796	-0.227434	-1.813502
H	1.04654	0.601558	-2.134903
H	1.937735	-0.791737	-3.031721
