15
-1476.44
C          0.90383        0.14538       -0.00499
C          2.34849       -0.28373        0.06281
C          2.64787       -1.73688       -0.21192
N          3.23686        0.61889        0.35692
N          4.53902        0.24209        0.42464
C          5.50836        1.15984        0.73127
O          6.69946        0.88537        0.80918
H          0.80727        1.21685        0.19064
H          0.32820       -0.40806        0.74178
H          0.50799       -0.07329       -1.00037
H          1.72669       -2.27775       -0.44478
H          3.10567       -2.19217        0.67046
H          3.32517       -1.81998       -1.06619
H          4.83761       -0.71071        0.25654
H          5.11139        2.17399        0.90199
