15
-1494.62
C          0.99865       -0.05909        0.00588
C          2.52000        0.00000        0.00000
O          2.99840       -0.67387       -1.16068
C          3.00202        1.36117        0.00000
C          3.39930        2.48307        0.00000
C          3.88132        3.84424        0.00000
O          2.85152        4.70899       -0.45745
H          0.58263        0.42711        0.89353
H          0.65783       -1.09921       -0.01641
H          0.57964        0.42870       -0.88133
H          2.90419       -0.54151        0.87048
H          2.77498       -0.10942       -1.92076
H          4.74477        3.95533       -0.66306
H          4.17445        4.15817        1.00649
H          3.21893        5.60769       -0.44502
