16
-1546.18
C          1.32400        2.85541        2.42300
N          2.09767        1.79439        1.83842
C          2.37814        1.75019        0.49129
O          2.06785        2.63577       -0.30111
C          3.12772        0.48790        0.05852
O          3.31503       -0.42755        1.14106
C          4.00615       -1.59499        0.71365
H          1.38509        2.77553        3.51068
H          0.28458        2.75653        2.09905
H          1.71473        3.82270        2.09491
H          2.30205        0.94875        2.36393
H          4.10285        0.79687       -0.33340
H          2.53887        0.00462       -0.72874
H          4.98801       -1.33392        0.30755
H          3.41830       -2.13299       -0.03582
H          4.14859       -2.24645        1.57966
