14

O	1.010084	0.309215	-0.186492
C	2.333456	0.019504	0.166858
C	2.950954	-0.824526	-0.950232
C	2.233907	-2.126005	-1.125876
C	2.80553	-3.325729	-1.01857
C	3.114456	1.255588	0.385963
N	3.705062	2.23154	0.580084
H	0.574544	0.748583	0.551954
H	2.388036	-0.560208	1.110886
H	4.017664	-0.98703	-0.732009
H	2.887323	-0.227832	-1.876925
H	1.164671	-2.047287	-1.350986
H	3.871418	-3.436042	-0.791223
H	2.232094	-4.245212	-1.162003
