15
-1475.49
C          1.44119       -0.51567       -0.70084
C          1.81271        0.73669       -0.40352
C          3.17323        1.27325       -0.49519
C          3.70239        1.69321       -1.83431
N          3.30661        2.69551       -0.84612
N          4.44115        3.14468       -0.26986
C          4.33826        4.38551        0.07063
H          0.40716       -0.82842       -0.59733
H          2.16005       -1.24933       -1.05111
H          1.04768        1.42640       -0.04975
H          3.87434        0.87338        0.23068
H          3.05914        1.61994       -2.70167
H          4.75782        1.55873       -2.03745
H          5.19042        4.88815        0.55435
H          3.43153        4.99469       -0.09390
