16

C	2.179985	-0.57067	-1.376831
C	2.362623	0.079536	-0.014359
C	3.292116	1.277357	-0.039969
C	2.762762	2.604202	-0.644192
N	2.965586	3.207337	0.662098
C	3.411012	2.069384	1.275721
O	3.734524	1.816534	2.403493
H	1.497149	-1.432026	-1.323421
H	3.140689	-0.929563	-1.778894
H	1.762039	0.139646	-2.108651
H	2.765276	-0.649155	0.70861
H	1.384497	0.395451	0.39005
H	4.284562	0.998721	-0.431903
H	1.708229	2.563339	-0.96741
H	3.373107	3.040751	-1.451203
H	2.781874	4.137385	1.022011
