20
-1916.23
C          0.97412       -0.06226        0.09317
C          2.51385       -0.09454        0.01538
C          3.05199       -0.68905        1.33355
C          2.97717       -0.95945       -1.19687
N          2.52990       -2.35361       -1.17004
C          2.98996        1.33783       -0.23337
C          3.82381        2.07273        0.51573
H          0.53296        0.30258       -0.84199
H          0.63249        0.59786        0.89956
H          0.55839       -1.05698        0.28861
H          2.78310       -0.06460        2.19368
H          4.14359       -0.78521        1.31243
H          2.63744       -1.68455        1.52703
H          4.07287       -0.95063       -1.26015
H          2.60731       -0.51338       -2.12893
H          2.96043       -2.83595       -0.38251
H          2.86957       -2.82762       -2.00626
H          2.59232        1.80716       -1.13488
H          4.27323        1.70398        1.43116
H          4.07727        3.08721        0.22080
