14

C	1.044974	-0.223363	-0.559763
N	2.339079	0.008637	0.042855
C	3.081838	-1.179595	0.397355
C	2.902644	1.215402	0.298337
O	4.000442	1.364304	0.812007
C	2.188068	2.531103	-0.048121
O	1.112665	2.70667	-0.550757
H	0.548869	0.720298	-0.79873
H	0.4056	-0.801467	0.129523
H	1.159366	-0.812821	-1.485554
H	2.515908	-1.784011	1.126653
H	4.040878	-0.883703	0.836853
H	3.264032	-1.799916	-0.496436
H	2.856967	3.373713	0.254847
