13
-1359.05
N          0.94467       -0.03712        0.02763
C          2.10484       -0.01768        0.01942
C          3.55006        0.00659        0.00861
C          4.21616        1.05295        0.93923
C          5.30373       -0.00256        1.22686
C          4.25134       -1.07338        0.87264
H          3.95762        0.04528       -1.01205
H          3.62949        1.32700        1.82456
H          4.56765        1.96659        0.45208
H          6.14938        0.03324        0.53050
H          5.68400       -0.02834        2.25088
H          4.63233       -1.94265        0.32966
H          3.67496       -1.42151        1.73849
