14

C	-1.222491	0.01208	-0.507037
C	-0.428035	-0.542923	0.711404
C	-0.56745	0.890798	1.301788
C	-0.366966	1.274215	-0.1937
C	1.038706	0.720311	-0.434398
C	0.998046	-0.478102	0.162671
H	-1.069701	-0.47839	-1.481029
H	-2.297116	0.150604	-0.302372
H	-0.741334	-1.440762	1.261162
H	-1.579901	1.112501	1.67751
H	0.197894	1.22271	2.020162
H	-0.615783	2.269091	-0.586882
H	1.852925	1.210786	-0.967865
H	1.769746	-1.242759	0.254625
