12
-1255.94
C          0.98020        0.06417       -0.00479
C          2.45978       -0.02909       -0.00600
N          3.21530        1.07585       -0.01132
N          4.47444        0.61063       -0.01103
C          4.54964       -0.75049       -0.00600
C          3.25204       -1.20052       -0.00268
H          0.64126        1.10526        0.00920
H          0.56804       -0.43791        0.87617
H          0.56848       -0.41433       -0.89898
H          5.23437        1.28213       -0.01452
H          5.49928       -1.26539       -0.00528
H          2.91800       -2.22840        0.00154
