19

C	0.839802	-0.20805	-0.110608
C	2.342741	0.056497	-0.199874
O	2.974895	-0.335322	0.999416
C	2.982885	-0.762823	-1.31865
N	2.786264	-2.175579	-1.080959
C	2.632245	1.552992	-0.40087
N	2.349572	2.257624	0.839096
H	0.312105	0.14188	-1.012446
H	0.410092	0.29622	0.769004
H	0.671748	-1.288102	-0.007578
H	2.8885	0.452404	1.566694
H	4.049696	-0.454797	-1.370928
H	2.518656	-0.482057	-2.280639
H	3.189757	-2.405171	-0.173558
H	3.277916	-2.730724	-1.775779
H	2.082736	1.933894	-1.283961
H	3.708219	1.661133	-0.612105
H	1.359156	2.469004	0.933658
H	2.851046	3.138377	0.897265
