11
-1153.09
C          0.92149        0.07476       -0.00465
C          2.40796        0.00035       -0.00588
N          3.20640        1.04704       -0.00905
C          4.52203        0.62698       -0.00963
C          4.71145       -0.73735       -0.00690
S          3.19238       -1.53072       -0.00366
H          0.59139        1.11864        0.00518
H          0.50767       -0.41760        0.88030
H          0.50799       -0.40082       -0.89929
H          5.31285        1.36679       -0.01214
H          5.63996       -1.28847       -0.00674
