21

C	0.976677	-0.037447	0.18429
C	2.478835	-0.038441	-0.082219
C	2.862815	-0.984397	-1.221589
N	2.444131	-0.482816	-2.518989
C	2.984286	1.388688	-0.312605
C	4.456849	1.498177	-0.678285
N	5.302023	0.796216	0.272043
H	0.725251	0.59711	1.04902
H	0.601899	-1.051954	0.394201
H	0.412303	0.36059	-0.676238
H	2.987579	-0.43457	0.813448
H	2.467904	-1.994893	-0.976644
H	3.960492	-1.079534	-1.222685
H	1.428928	-0.492081	-2.599354
H	2.790772	-1.082167	-3.263985
H	2.78199	1.983748	0.597771
H	2.399941	1.854783	-1.122887
H	4.705782	2.574957	-0.796627
H	4.598354	1.046194	-1.67379
H	5.24277	1.236063	1.18946
H	6.279038	0.851244	-0.007035
