13
-1422.25
C          1.00000        0.00000        0.00000
C          2.19016        0.00000        0.00000
C          3.59616        0.00000        0.00000
C          4.35091       -1.09524       -0.00629
C          5.77243       -0.69067        0.00248
C          5.65063        0.80607       -0.25960
O          4.29031        1.20315        0.00657
H         -0.06470        0.00627        0.00062
H          3.99068       -2.11293        0.00158
H          6.22569       -0.89404        0.97718
H          6.36265       -1.18551       -0.77293
H          5.87463        1.04438       -1.30739
H          6.32783        1.38798        0.37451
