18
-1724.16
C          3.09631       -1.43204        1.35856
C          3.01229        0.07236        1.45577
C          2.57833        0.63887        2.59767
C          3.40617        0.81956        0.19098
N          3.13327        2.26902        0.24053
C          4.89982        0.63539       -0.17664
O          5.22839        1.45638       -1.30134
H          4.13505       -1.75437        1.23752
H          2.51524       -1.79081        0.50276
H          2.70212       -1.92688        2.25291
H          2.30023        0.03357        3.45695
H          2.48153        1.71082        2.72743
H          2.80295        0.43532       -0.64123
H          3.65399        2.67277        1.01856
H          2.14496        2.39932        0.45383
H          5.12256       -0.40138       -0.44568
H          5.55289        0.92748        0.65315
H          4.63603        2.23284       -1.21273
