16
-1523.12
N          1.03068        0.01808        0.23381
C          2.47986        0.02749       -0.01022
C          3.15223        1.04011        0.95887
O          2.34727        1.49249        2.07109
C          4.18868       -0.06381        1.27917
C          3.15137       -1.11119        0.81245
O          3.64903       -2.23596        0.05984
H          0.58094       -0.83299       -0.11215
H          0.54270        0.78659       -0.23031
H          2.78261        0.09908       -1.05832
H          3.59058        1.90657        0.45270
H          1.50922        0.99971        1.94635
H          5.09287       -0.01323        0.66320
H          4.48266       -0.14030        2.32972
H          2.54442       -1.47629        1.65322
H          4.25598       -1.86476       -0.60208
