12
-1247.32
N          1.13034        0.01418        0.32993
C          2.37756        0.01457        0.02058
C          3.20264       -1.26710       -0.09463
C          4.53681       -0.65436       -0.47930
C          4.44749        0.68056       -0.55118
N          3.18205        1.08279       -0.25560
H          0.78715        0.97722        0.34724
H          2.80405       -1.91337       -0.87963
H          3.24842       -1.78429        0.86630
H          5.42889       -1.23257       -0.66764
H          5.22036        1.39398       -0.80076
H          2.89890        2.04969       -0.26598
