14

C	0.770169	1.347913	-0.563634
C	-0.351535	0.890014	0.319872
C	-1.36113	-0.052817	-0.304361
O	-0.714144	-1.288555	-0.516443
C	0.676928	-1.199209	-0.299522
C	0.955521	0.153672	0.325295
H	0.679134	1.178123	-1.64319
H	1.288285	2.271389	-0.292028
H	-0.663288	1.520175	1.157102
H	-2.229602	-0.203049	0.360358
H	-1.743951	0.344264	-1.265018
H	0.997714	-2.019255	0.366315
H	1.219398	-1.319451	-1.257991
H	1.65064	0.215686	1.166944
