17
-1745.43
C          0.98716        0.00679        0.13694
C          2.52000        0.00000        0.00000
C          3.12650       -0.74985        1.19939
C          2.88482       -0.75502       -1.27319
C          3.56170       -0.31344       -2.34419
C          3.00202        1.36117        0.00000
C          3.39930        2.48307        0.00000
H          0.51127        0.52709       -0.70386
H          0.67080        0.51758        1.05480
H          0.58050       -1.01112        0.16935
H          2.87061       -0.25994        2.14702
H          4.22153       -0.78567        1.13848
H          2.76389       -1.78332        1.25437
H          2.54311       -1.79046       -1.30315
H          3.94466        0.69894       -2.41637
H          3.74881       -0.97106       -3.18743
H          3.75565        3.48721       -0.00144
