18
-1754.1
C          0.87075        1.15049       -1.25202
C          2.35705        0.98872       -1.24250
C          3.13889        1.33452       -0.20666
C          4.64383        1.20289       -0.10547
C          5.31999        0.46932       -1.26661
C          5.26917        2.58894        0.06804
H          0.57333        1.80667       -2.07568
H          0.49352        1.58130       -0.31923
H          0.39163        0.17739       -1.39673
H          2.78812        0.56617       -2.14597
H          2.66200        1.75328        0.67987
H          4.84906        0.62551        0.80552
H          5.19675        1.00803       -2.21277
H          4.91051       -0.53946       -1.38842
H          6.39510        0.36621       -1.08180
H          5.09808        3.21775       -0.81328
H          6.35107        2.51077        0.22176
H          4.84883        3.10683        0.93767
