19
-1898.25
C          0.94693       -0.09106        0.02264
C          2.46656       -0.04568        0.00945
C          2.98428        1.39244       -0.00671
C          4.51227        1.43347       -0.02305
C          5.00543        2.81836       -0.01967
C          5.41197        3.94862       -0.01408
C          5.90720        5.32532       -0.00489
H          0.59885       -1.12864        0.03713
H          0.53226        0.39397       -0.86681
H          0.54685        0.41377        0.90779
H          2.83477       -0.58441       -0.87131
H          2.84913       -0.56889        0.89359
H          2.60761        1.92882        0.87377
H          2.58998        1.91639       -0.88700
H          4.88862        0.91340       -0.91174
H          4.90794        0.90375        0.85139
H          5.10703        6.02848       -0.25486
H          6.71264        5.45407       -0.73421
H          6.29719        5.59170        0.98212
