11
-1208.76
C          1.00000        0.00000        0.00000
C          2.19016        0.00000        0.00000
C          3.63416        0.00000        0.00000
O          4.12600       -1.20066       -0.65564
C          4.86001       -0.66069       -1.68363
C          4.85960        0.65653       -1.68557
O          4.12639        1.19957       -0.65784
H         -0.06553       -0.00001       -0.00653
H          4.02662        0.00078        1.02408
H          5.32656       -1.35331       -2.35904
H          5.32613        1.34859       -2.36150
