18
-1751.69
C          0.91791       -0.05865        0.05205
C          2.43685       -0.12045       -0.12775
C          2.77649       -0.93091       -1.38157
C          3.01487        1.30666       -0.18000
C          4.51608        1.33857       -0.25292
C          5.20521        1.91081       -1.24779
H          0.65577        0.48558        0.96522
H          0.49387       -1.06513        0.13045
H          0.43826        0.44598       -0.79343
H          2.85801       -0.64354        0.74108
H          2.42297       -0.42694       -2.28743
H          2.30929       -1.92071       -1.34131
H          3.85597       -1.08443       -1.47612
H          2.71555        1.84972        0.72527
H          2.57763        1.85114       -1.02693
H          5.05945        0.87141        0.56609
H          4.70713        2.39309       -2.08340
H          6.29079        1.90698       -1.24636
