17

C	0.960356	0.027186	-0.006598
C	2.414786	0.00526	-0.002531
C	3.627504	-0.022833	0.000556
C	5.089449	-0.025145	-0.004072
C	5.669354	-0.799541	-1.187982
C	5.628635	1.41495	0.037107
O	7.027003	1.465976	0.093633
H	0.57628	1.059262	-0.014015
H	0.550345	-0.474759	0.884261
H	0.556043	-0.485065	-0.894111
H	5.42536	-0.518941	0.930224
H	5.312262	-0.37072	-2.137135
H	5.371083	-1.857178	-1.158365
H	6.766646	-0.731954	-1.171532
H	5.154735	1.956371	0.87908
H	5.32831	1.934468	-0.887496
H	7.305398	1.102724	0.940836
