18

C	2.315431	3.109325	1.688925
C	2.864794	1.939422	1.360226
C	3.174061	1.479248	-0.030651
C	4.644221	1.112529	-0.242102
C	5.577097	2.287254	-0.11393
C	6.184304	2.680203	1.176603
N	6.973101	1.993878	0.165494
H	2.110755	3.374455	2.72966
H	2.044613	3.84692	0.925976
H	3.124261	1.233371	2.160963
H	2.870294	2.254752	-0.755016
H	2.558339	0.589452	-0.254692
H	4.769598	0.663049	-1.242202
H	4.957095	0.340829	0.481396
H	5.361325	3.112687	-0.808293
H	5.963846	2.096919	2.077865
H	6.354799	3.746337	1.365314
H	7.590506	2.64173	-0.319976
