9
-1002.62
O          0.86783        0.13068        0.00000
N          2.26329        0.00995       -0.00000
C          2.78112        1.18649        0.00000
C          4.21198        1.14392        0.00000
C          5.41179        1.09820       -0.00000
C          6.94276        1.03128       -0.00000
N          8.10212        0.98921       -0.00000
H          0.57613       -0.80125       -0.00000
H          2.23763        2.14384        0.00000
