18
-1710.06
C          0.98240       -0.09198        0.03481
C          2.49612        0.00455        0.04560
C          3.16137        1.09018        0.94875
O          2.40683        1.56702        2.08866
C          4.20026       -0.02660        1.24058
N          3.12445       -1.01337        0.94215
C          3.65775       -2.12667        0.16364
H          0.65495       -0.96649       -0.53796
H          0.54768        0.79512       -0.43814
H          0.56167       -0.17483        1.04276
H          2.89137        0.03295       -0.98082
H          3.56709        1.94435        0.39526
H          2.12812        0.74326        2.53201
H          5.05746       -0.01823        0.55537
H          4.57221       -0.06481        2.26888
H          2.83654       -2.75453       -0.19924
H          4.29088       -2.75568        0.79928
H          4.25340       -1.81513       -0.70321
