11

O	2.140714	-0.899613	0.477094
C	2.129314	0.185731	-0.03951
C	3.235882	1.163942	0.009778
C	3.450625	2.050241	-1.198331
C	2.877775	2.634549	0.038091
H	1.233166	0.543653	-0.620473
H	4.110225	0.82689	0.573162
H	2.789661	1.899945	-2.057855
H	4.486688	2.275212	-1.461228
H	3.502827	3.279168	0.660519
H	1.814513	2.894202	0.046153
