17
-1747.73
C          0.82441        0.18828       -0.29330
C          2.33343        0.31952       -0.11692
C          2.89862        1.72639       -0.03876
C          2.15962        2.84972       -0.09249
C          4.40136        1.80439        0.14726
C          5.09432        1.57067       -1.12926
C          5.66453        1.38964       -2.16986
H          0.54295       -0.86940       -0.32923
H          0.49106        0.65329       -1.22686
H          0.28323        0.64750        0.54047
H          2.81478       -0.20779       -0.94947
H          2.61240       -0.21375        0.80066
H          1.08223        2.83627       -0.21587
H          2.62086        3.83141       -0.02727
H          4.72021        1.07055        0.89687
H          4.69144        2.78592        0.54185
H          6.16683        1.23362       -3.09695
