18

C	2.177683	-0.49092	-1.385918
N	2.34547	0.075596	-0.069922
C	3.111094	1.286241	-0.042139
C	2.448605	2.601689	-0.499035
C	3.200597	3.322393	0.637019
C	3.337553	1.951521	1.323764
O	4.452498	1.628897	2.089551
H	1.605468	-1.429059	-1.326072
H	3.129787	-0.702918	-1.921497
H	1.599043	0.201822	-2.019459
H	2.767847	-0.601975	0.561471
H	4.103216	1.195686	-0.550331
H	1.365171	2.556217	-0.308234
H	2.620536	2.940577	-1.53036
H	4.184977	3.687519	0.299159
H	2.69502	4.132777	1.18131
H	2.453824	1.752982	1.952534
H	5.237751	1.835175	1.57094
