14
-1487.22
C          1.13357        0.00014        0.17251
N          2.55586        0.00493       -0.06399
C          3.31811       -1.20588       -0.17728
C          4.67496       -0.65838       -0.45231
C          4.69443        0.67810       -0.50434
C          3.31686        1.13487       -0.26259
O          2.96925        2.29996       -0.25445
H          0.75474        1.02135        0.26360
H          0.92929       -0.54843        1.09579
H          0.63909       -0.49570       -0.66711
H          2.94197       -1.80958       -1.00756
H          3.27878       -1.76188        0.76303
H          5.54437       -1.28397       -0.59463
H          5.51836        1.34371       -0.68602
