17
-1653.82
C          0.96092       -1.08132        0.66203
C          2.09273       -0.79178       -0.31912
C          2.71627       -2.09557       -0.80505
O          1.60176       -0.10677       -1.47568
C          1.33418        1.27185       -1.24686
C          0.95021        1.89793       -2.56544
O          1.29454        3.02606       -2.90789
H          0.56396       -0.15527        1.08917
H          1.30392       -1.71057        1.48923
H          0.12615       -1.58194        0.15944
H          2.87211       -0.19240        0.16698
H          1.98327       -2.70489       -1.34539
H          3.11591       -2.68210        0.02786
H          3.53147       -1.88870       -1.50697
H          2.22272        1.77858       -0.85733
H          0.48949        1.38988       -0.56315
H          0.24089        1.31532       -3.17879
