13

O	1.720367	-0.658217	-0.794642
C	2.035564	0.073078	0.100978
C	3.112491	1.136416	0.017345
C	2.685214	2.477857	0.547707
C	2.96494	3.414072	-0.382413
C	3.559825	2.772342	-1.556495
C	3.639815	1.441981	-1.347554
H	1.547464	0.001391	1.108386
H	3.936489	0.752923	0.659607
H	2.238937	2.636014	1.529979
H	2.781036	4.485845	-0.28553
H	3.872728	3.29987	-2.459361
H	4.001662	0.682489	-2.039558
