19
-1805.48
C          1.03555        0.03043       -0.06064
C          2.55455        0.01840        0.04184
N          3.05436        1.08320        0.92656
C          4.43337        0.67688        1.22001
C          4.40623       -0.84038        1.34599
C          3.10692       -1.27789        0.66917
N          3.31344       -2.37393       -0.27587
H          0.68287       -0.77611       -0.71170
H          0.68233        0.97934       -0.47833
H          0.56429       -0.09946        0.92003
H          2.97664        0.17190       -0.95993
H          2.52020        1.07036        1.79667
H          5.08348        0.97649        0.39008
H          4.81028        1.15928        2.12695
H          5.30216       -1.28114        0.89365
H          4.39012       -1.14220        2.40010
H          2.42084       -1.63652        1.44792
H          3.97513       -2.08309       -0.99706
H          2.44121       -2.57224       -0.76685
