18

C	1.003178	0.149246	-0.16346
C	2.504588	0.088371	-0.077337
C	3.319127	-0.58111	-1.169505
O	2.687359	-1.028288	-2.318139
C	3.43323	0.896459	-0.977012
C	2.853529	1.813149	-2.023037
N	4.682891	1.387336	-0.457932
H	0.608938	1.093682	0.244839
H	0.539321	-0.672419	0.406191
H	0.659242	0.06421	-1.203858
H	2.900477	-0.059158	0.935359
H	4.187492	-1.18252	-0.856385
H	2.214664	-1.838071	-2.098154
H	1.988686	1.364981	-2.525483
H	3.622225	2.027957	-2.77952
H	2.54099	2.769392	-1.572088
H	5.131124	0.689846	0.132168
H	4.511846	2.196744	0.138344
