17

C	0.904177	-0.482986	-0.005749
C	2.379597	-0.453665	-0.302289
C	2.882189	-0.143777	-1.683588
C	3.084243	0.84481	-0.571147
C	4.45966	1.105491	-0.0271
C	5.218806	2.180673	-0.75769
O	4.776874	2.843555	-1.656454
H	0.703775	-0.29289	1.060852
H	0.463188	-1.459806	-0.262047
H	0.369862	0.28448	-0.587203
H	2.967805	-1.195328	0.252391
H	2.148341	0.102139	-2.456424
H	3.757826	-0.684749	-2.055136
H	2.44997	1.737147	-0.615339
H	5.080968	0.190459	-0.037608
H	4.428463	1.408928	1.038011
H	6.267296	2.344298	-0.38803
