16
-1492.09
C          1.05355       -0.02193        0.08507
C          2.56721       -0.08872        0.04256
O          3.07657        1.24347        0.01388
C          4.50943        1.25696       -0.02810
C          4.96488        2.71194       -0.05299
O          4.51064        3.37775        1.12449
H          0.61939       -1.02535        0.10708
H          0.66662        0.51212       -0.78903
H          0.71685        0.52850        0.96964
H          2.89145       -0.62752       -0.85450
H          2.94239       -0.60907        0.93058
H          4.86107        0.73475       -0.92392
H          4.89330        0.75954        0.86944
H          4.54215        3.23896       -0.91409
H          6.05545        2.78100       -0.09117
H          3.56522        3.14042        1.19961
