16
-1552.97
C          0.60373        0.35840       -0.79506
C          0.06749        1.29957        0.25076
N          0.18334       -0.13183        0.51434
C          1.31821       -0.45810        1.39009
C          0.81571       -0.68273        2.82318
O          1.41894       -2.00726        2.85429
C          1.53842       -1.97714        1.40359
H         -0.04299        0.09832       -1.62456
H          1.66142        0.38726       -1.02639
H         -0.94127        1.67470        0.12761
H          0.75520        1.97736        0.74120
H          2.23241        0.14049        1.30996
H         -0.26636       -0.74505        2.98196
H          1.25879       -0.02311        3.57495
H          2.53064       -2.30138        1.07666
H          0.77427       -2.60904        0.93802
