18

C	0.964866	0.095129	0.019714
C	2.448387	0.001898	-0.058038
C	3.209615	-1.099991	-0.138471
C	2.764256	-2.527885	-0.171638
C	4.666839	-0.70731	-0.103038
N	4.690735	0.747983	-0.207684
C	3.332087	1.221294	0.041465
H	0.482644	-0.891824	-0.017532
H	0.556395	0.704716	-0.804835
H	0.649473	0.589577	0.955421
H	3.621131	-3.214586	-0.232736
H	2.117926	-2.731592	-1.040826
H	2.188806	-2.80148	0.728397
H	5.125861	-1.059407	0.845588
H	5.256625	-1.180596	-0.909163
H	4.96384	1.006961	-1.149317
H	3.046057	2.018603	-0.668178
H	3.234197	1.673141	1.051641
