13

O	0.885308	-0.037259	0.244043
C	2.265088	-0.012432	0.023202
C	3.04715	1.012602	0.884891
O	3.54911	-0.016157	1.730005
C	3.079444	-1.036123	0.856283
C	2.511441	0.011479	-1.413457
C	2.758193	0.031977	-2.59774
H	0.73834	-0.056076	1.197041
H	2.401683	1.73734	1.411898
H	3.845833	1.553953	0.348521
H	3.894461	-1.536772	0.305244
H	2.457494	-1.795493	1.362464
H	2.969085	0.050392	-3.651433
