15
-1485.76
C          0.80330        1.35009       -0.63979
C         -0.32661        0.97160        0.27822
C         -1.38076        0.00482       -0.16797
C         -0.73914       -1.37456        0.03595
N          0.71728       -1.17346       -0.08299
C          0.96956        0.21725        0.32498
H          0.72329        1.11588       -1.69488
H          1.33674        2.27039       -0.43377
H         -0.59556        1.60133        1.11200
H         -2.29736        0.10442        0.42147
H         -1.62453        0.16928       -1.22372
H         -0.96729       -1.73599        1.04610
H         -1.10715       -2.11083       -0.68398
H          1.20546       -1.84342        0.51013
H          1.62311        0.36771        1.17796
