15
-1444.9
C          1.05442       -0.06929        0.14070
C          2.56097        0.00800        0.02925
N          3.07871        1.19303        0.05607
C          4.54235        1.24240       -0.10187
C          5.21137       -0.09711        0.17313
O          4.53635       -1.09658       -0.59776
N          3.24159       -1.19282       -0.07016
H          0.71169       -1.10701        0.16543
H          0.60421        0.43487       -0.71941
H          0.73165        0.43398        1.05677
H          4.75384        1.55856       -1.12995
H          4.95118        2.00409        0.56996
H          6.25984       -0.07173       -0.13943
H          5.18238       -0.36149        1.23756
H          2.72077       -1.98625       -0.43415
