14

C	1.089718	-0.210103	-0.606712
C	2.273573	-0.1679	-0.359
C	3.695158	-0.10979	-0.034898
N	4.253972	1.205085	-0.261
C	5.647838	1.29204	0.115777
C	6.180977	2.639802	-0.052171
C	6.616009	3.763197	-0.167968
H	0.040461	-0.252063	-0.834418
H	4.232918	-0.83506	-0.673342
H	3.82986	-0.477036	1.009608
H	3.708401	1.91275	0.22529
H	6.228535	0.600164	-0.521765
H	5.846437	0.967326	1.164154
H	7.005873	4.75857	-0.275614
