18

C	2.00732	-1.157476	-0.558992
C	3.086776	-0.849186	0.468175
C	3.811607	0.49647	0.289128
N	4.657804	0.767813	1.423621
C	5.092007	2.14308	1.54064
C	4.565989	0.507133	-1.032201
O	5.766628	0.473719	-1.1018
H	1.47936	-2.086893	-0.298361
H	2.411787	-1.291557	-1.573881
H	1.254862	-0.353129	-0.604223
H	3.844467	-1.653007	0.478429
H	2.65808	-0.823583	1.481848
H	3.035664	1.284708	0.225947
H	5.474033	0.1604	1.364469
H	4.219489	2.795093	1.711514
H	5.642099	2.535095	0.661104
H	5.747378	2.247383	2.418635
H	3.93957	0.521907	-1.963163
