12

O	0.867982	0.687094	0.224344
C	1.998863	0.278333	0.225696
C	3.183413	1.167146	-0.063392
N	2.86525	2.560193	-0.340135
C	3.307624	3.021242	0.985522
C	3.890095	1.639105	1.233581
O	4.595024	1.123423	2.039629
H	2.24504	-0.787798	0.453668
H	3.85598	0.65748	-0.780844
H	1.870193	2.69141	-0.517232
H	4.030479	3.855061	0.987715
H	2.503207	3.249472	1.71112
