16

O	0.923183	0.064597	-0.254814
C	2.285817	0.00134	0.097534
C	3.088134	1.229985	-0.335385
N	3.328325	1.19774	-1.756658
C	4.188487	0.109247	-2.15154
C	3.7445	-1.178833	-1.531355
C	2.867387	-1.234259	-0.526383
H	0.529522	0.803341	0.220728
H	2.393733	-0.092838	1.200109
H	2.517783	2.139476	-0.082606
H	4.022372	1.258473	0.274382
H	3.684751	2.085397	-2.094463
H	5.263718	0.264687	-1.884922
H	4.165103	0.00478	-3.250749
H	4.175845	-2.099355	-1.937628
H	2.532441	-2.197566	-0.13058
