15
-1574.88
C          1.44624        0.39933       -0.24502
C          2.68085       -0.22573        0.28684
C          2.86112       -1.72688        0.27157
C          4.32271       -1.94136       -0.06049
C          4.94707       -0.75407       -0.15073
C          4.05893        0.38962        0.11231
O          3.32056        0.50225        1.34081
H          1.52537        1.49132       -0.27717
H          0.58891        0.14134        0.38458
H          1.24237        0.04847       -1.26179
H          2.23831       -2.19104       -0.50024
H          2.61293       -2.16468        1.24355
H          4.78300       -2.90853       -0.19400
H          5.99943       -0.62909       -0.36843
H          4.17105        1.26576       -0.51284
