16
-1661.78
C          1.82091       -0.31590        1.48640
C          2.26593        0.09437        0.09187
C          2.97944        1.41700        0.10915
C          4.30674        1.63646        0.00000
C          5.34144        0.55050       -0.10117
C          4.77607        2.96181        0.00000
N          5.16029        4.04680        0.00000
H          1.27613       -1.26387        1.44483
H          1.15876        0.43538        1.92892
H          2.68047       -0.44826        2.15127
H          1.38604        0.18687       -0.55734
H          2.88017       -0.69721       -0.34879
H          2.31477        2.27800        0.20048
H          4.95619       -0.43744        0.16437
H          6.17556        0.75201        0.58126
H          5.73920        0.49959       -1.12046
