14
-1449.59
C          1.03097        0.21679        0.15024
C          2.50284        0.02509       -0.17669
C          3.27852        1.28574        0.03160
O          3.68303        1.52200        1.38402
C          4.73166        1.24133        0.43851
C          5.57728        2.36052        0.15182
N          6.27036        3.25493       -0.10609
H          0.47816       -0.71237       -0.01856
H          0.58804        0.99786       -0.47653
H          0.89688        0.51106        1.19640
H          2.60429       -0.28427       -1.22295
H          2.90566       -0.78778        0.43907
H          2.91503        2.12307       -0.55084
H          5.21889        0.27775        0.51459
