12

O	0.983302	-0.005404	-0.014755
C	2.394961	-0.024181	-0.029315
C	3.011782	-1.246401	0.68238
O	3.434286	-0.815515	1.975068
C	3.42007	0.531753	1.950334
C	2.919889	1.081686	0.837829
H	0.670495	-0.556401	-0.739784
H	2.765149	0.041216	-1.071003
H	3.898396	-1.620573	0.143309
H	2.280769	-2.060261	0.798416
H	3.816706	1.01116	2.847191
H	2.789656	2.1435	0.639049
