19

C	2.361314	-1.450658	-0.497576
C	1.869093	-0.116986	0.048231
C	2.991716	0.779794	0.533325
C	3.723087	0.303637	1.76255
O	3.815183	1.278213	-0.515843
C	2.970631	2.201935	0.147225
C	3.619026	3.324757	0.902187
H	1.53143	-2.03338	-0.925063
H	2.830998	-2.07141	0.281096
H	3.1049	-1.282145	-1.291642
H	1.153981	-0.275693	0.874353
H	1.320404	0.417703	-0.743935
H	4.540886	0.981214	2.036667
H	4.165557	-0.688181	1.585115
H	3.032803	0.217587	2.616178
H	2.104386	2.517784	-0.45682
H	4.474119	2.982435	1.499052
H	2.891912	3.810036	1.572244
H	3.986703	4.086939	0.197707
