19
-1783.29
C          2.59501       -0.91018       -0.40247
N          2.22866        0.32716        0.27229
C          3.31085        1.31990        0.24229
C          3.43892        2.24558       -0.93387
C          3.00804        2.80568        0.39682
C          1.57549        3.26494        0.52196
N          3.97703        3.63307        1.14464
H          1.75235       -1.60789       -0.37304
H          3.45103       -1.39035        0.08303
H          2.83905       -0.72931       -1.45448
H          1.96557        0.12064        1.23558
H          4.24282        0.97211        0.68485
H          2.70159        2.17292       -1.72612
H          4.43420        2.47309       -1.29675
H          0.89737        2.70865       -0.13349
H          1.49167        4.32439        0.25574
H          1.22655        3.14226        1.55296
H          4.93242        3.31088        0.99810
H          3.80250        3.55626        2.14616
