12

C	0.894617	0.058588	-0.007942
C	2.38421	0.02887	-3.9e-05
C	3.254678	1.063274	0.004768
C	4.669708	0.673447	0.011649
O	5.662921	1.368532	0.017334
N	4.700614	-0.71738	0.010907
S	3.202395	-1.511377	0.002999
H	0.540107	1.097509	-0.004174
H	0.47979	-0.451618	0.875593
H	0.48976	-0.441666	-0.901769
H	2.961861	2.112644	0.004046
H	5.574279	-1.230574	0.015859
