13
-1293.27
C          1.83961       -0.16949        0.16760
N          0.98870       -1.30093        0.57598
C         -0.04287       -0.91099       -0.40070
C         -1.31087       -0.30287        0.21750
N         -1.32113        0.99018        0.28327
O         -0.07446        1.49452       -0.23036
C          0.71478        0.37402       -0.72010
H          2.73483       -0.47018       -0.38874
H          2.14313        0.48168        0.99233
H          1.40854       -2.21514        0.41682
H         -0.20135       -1.59988       -1.23273
H         -2.14383       -0.94160        0.54311
H          0.98183        0.51410       -1.77187
