20
-1859.72
C          3.61174        1.63054       -3.62373
C          4.70253        1.93907       -2.60703
N          4.15834        1.81178       -1.25412
C          5.14429        1.98817       -0.16342
C          6.20303        0.88864       -0.11796
C          5.78272        3.39186       -0.16354
O          4.76001        4.38488       -0.23206
H          3.99472        1.76776       -4.64025
H          2.74939        2.29386       -3.49628
H          3.26605        0.59518       -3.53145
H          5.06090        2.95771       -2.78589
H          5.53415        1.24727       -2.77140
H          3.72699        0.89102       -1.15436
H          4.55387        1.91319        0.75951
H          6.88534        0.93800       -0.97204
H          5.73784       -0.10305       -0.10637
H          6.80633        0.97988        0.79185
H          6.45805        3.53326       -1.01341
H          6.35515        3.55760        0.75456
H          4.04338        3.96884       -0.75401
