17
-1721.47
C          0.81923       -0.00869       -0.11663
C          2.29556       -0.29446       -0.03388
O          2.72915       -1.43253       -0.21079
C          3.18919        0.89888        0.26046
C          4.64575        0.55739        0.38901
C          5.60659        0.82782       -0.74063
C          5.66424        1.66279        0.50838
H          0.49371        0.51802        0.78354
H          0.26370       -0.94969       -0.18750
H          0.61223        0.59680       -1.00318
H          2.85138        1.33745        1.20640
H          3.03303        1.63805       -0.53368
H          4.80971       -0.32746        0.99666
H          5.23579        1.29303       -1.64647
H          6.39963        0.10750       -0.90966
H          6.49962        1.50885        1.18277
H          5.32946        2.69163        0.44704
