14
-1471.71
C          1.20236       -0.03629        0.50480
C          2.44824        0.07392        0.03514
N          3.10365        1.23975       -0.15053
C          2.63054        2.58325        0.10466
C          4.01320        3.06949       -0.39645
C          4.33215        1.57122       -0.60129
O          5.26652        0.91402       -0.99453
H          0.75022       -1.01619        0.62315
H          0.60201        0.82258        0.78167
H          3.01639       -0.81590       -0.23115
H          2.42600        2.79055        1.15886
H          1.78471        2.88367       -0.52021
H          3.99834        3.65082       -1.32150
H          4.63852        3.55794        0.35473
