17
-1712.54
C          1.87360        0.14068       -0.73046
C          1.83240       -0.13056        0.74487
C          0.53917        0.02392       -0.02690
C         -0.32883        1.21709        0.20479
C         -1.70555        0.70460       -0.18437
O         -1.67736       -0.70509        0.09153
C         -0.35784       -1.15720       -0.25441
H          2.20747        1.12148       -1.05340
H          2.19129       -0.66622       -1.38214
H          2.11606       -1.11906        1.09003
H          2.13074        0.66754        1.41719
H         -0.31694        1.48877        1.26696
H         -0.04671        2.09483       -0.38333
H         -2.50908        1.17984        0.38454
H         -1.89896        0.84057       -1.25446
H         -0.36224       -1.45659       -1.30732
H         -0.10712       -2.02000        0.36756
