17
-1647.82
C          3.09054       -1.23881       -0.26701
C          2.40378        0.03952        0.19151
O          1.68089       -0.21630        1.39340
C          3.38866        1.13680        0.44644
O          3.75182        1.90487       -0.71132
C          2.98457        2.58047        0.29445
C          3.71417        3.66166        1.00551
H          3.63775       -1.08188       -1.20195
H          2.35515       -2.03641       -0.41741
H          3.79963       -1.59897        0.48730
H          1.67257        0.34417       -0.56512
H          2.29917       -0.60273        2.03580
H          4.16685        0.87795        1.15172
H          1.95295        2.82535        0.07857
H          4.76636        3.40760        1.17263
H          3.25109        3.84976        1.97953
H          3.67597        4.58827        0.42504
