13

C	0.868078	0.025068	0.073893
S	2.629271	-0.238722	0.12003
O	3.006743	-0.623325	1.4733
O	3.001508	-1.059401	-1.02953
C	3.313858	1.41364	-0.194929
C	3.06957	1.788976	-1.635089
O	2.059102	2.330974	-1.996592
H	0.597887	0.538511	-0.857797
H	0.57296	0.605435	0.956687
H	0.430745	-0.981808	0.107611
H	4.380036	1.290097	0.045644
H	2.835661	2.118872	0.499213
H	3.868511	1.491452	-2.354499
