14
-1457.93
C          0.93690       -0.06833        0.01446
C          2.45503        0.02451        0.00398
C          2.93643        1.43294        0.00066
N          3.15045        2.07979        1.15389
O          3.58437        3.34538        0.79773
C          3.62616        3.44252       -0.55275
C          3.22559        2.25744       -1.11061
H          0.62054       -1.11622        0.01249
H          0.50435        0.41953       -0.86561
H          0.51708        0.41234        0.90473
H          2.84132       -0.49469       -0.88151
H          2.85690       -0.50499        0.87613
H          3.95333        4.39454       -0.94372
H          3.15102        2.02041       -2.16075
