17

C	1.578406	2.141283	0.243171
O	2.958468	2.301358	0.362701
C	3.692872	1.595601	-0.591795
C	5.175154	1.901954	-0.410468
C	6.066428	1.040541	-1.285506
C	5.436398	3.379652	-0.609301
O	6.350802	3.824753	-1.251768
H	1.100053	2.724692	1.042099
H	1.273328	1.081303	0.351631
H	1.200499	2.505858	-0.732878
H	3.374172	1.87074	-1.621372
H	3.527316	0.501868	-0.492138
H	5.391377	1.717185	0.660653
H	5.821909	1.178356	-2.350903
H	5.954736	-0.026151	-1.039552
H	7.120438	1.323809	-1.159629
H	4.702374	4.051719	-0.098844
