13

O	1.411675	1.702571	0.003437
C	2.593993	1.906725	-0.026597
C	3.487734	1.516396	-1.181145
N	4.8589	1.397375	-0.762715
C	5.329989	0.090278	-0.36599
C	5.774091	0.711563	-1.638637
H	3.131294	2.433257	0.805667
H	3.412162	2.335094	-1.922023
H	3.062588	0.610081	-1.663271
H	4.632254	-0.754812	-0.442052
H	5.994626	0.057761	0.503731
H	6.774921	1.146799	-1.730941
H	5.375792	0.280702	-2.566664
