19
-1781.62
N          2.25042       -0.42620       -1.44213
C          2.37466        0.02083       -0.05786
C          3.19839        1.29879        0.01748
C          2.52607        2.59508       -0.52288
C          3.20328        3.34851        0.64286
C          3.20747        2.00388        1.40312
N          4.50297        1.82021        2.05018
H          1.69873       -1.28303       -1.47092
H          3.17028       -0.67133       -1.80656
H          2.85278       -0.76788        0.53318
H          1.37247        0.17903        0.35540
H          4.20163        1.15548       -0.41377
H          1.43087        2.59870       -0.46746
H          2.83148        2.90513       -1.52570
H          4.18533        3.75715        0.37360
H          2.60480        4.14467        1.09443
H          2.33333        1.83243        2.03823
H          5.31033        2.03595        1.46712
H          4.65634        0.87964        2.40982
