14

C	1.465092	-0.821217	0.084645
C	2.7248	-0.381122	-0.064768
C	3.103722	1.014524	-0.126732
C	4.373389	1.453381	-0.276457
C	4.752271	2.849042	-0.338378
C	6.011942	3.289215	-0.48784
H	1.232933	-1.887899	0.126186
H	0.62511	-0.124641	0.170923
H	3.53869	-1.112221	-0.14773
H	2.294389	1.751622	-0.044863
H	5.18273	0.716295	-0.358345
H	3.93835	3.580096	-0.255314
H	6.851959	2.592697	-0.574235
H	6.244023	4.355918	-0.529304
