13
-1316.15
O          3.11928       -0.92430       -0.62312
C          2.28656        0.04887        0.00921
C          1.90430       -0.37026        1.37167
N          1.60137       -0.69512        2.44550
C          3.07556        1.31574        0.19864
C          3.39679        2.19162       -0.99306
N          2.43711        2.62298        0.01318
H          3.24693       -0.62510       -1.53841
H          1.39587        0.19902       -0.61088
H          3.84395        1.23772        0.96271
H          2.98046        1.94801       -1.96264
H          4.34719        2.71164       -1.01336
H          2.84574        3.31821        0.64414
