19
-1790.38
N          3.23623        0.99126        2.53168
C          2.80807        1.81156        1.39636
C          3.33551        1.28147        0.05381
C          4.84913        1.30476       -0.09032
C          5.54117        0.16395       -0.26259
C          5.54134        2.64072       -0.03806
N          5.06371        3.51672       -1.09770
H          2.97840        1.45840        3.39978
H          4.25386        0.92298        2.52910
H          3.12680        2.84789        1.55549
H          1.71270        1.81505        1.37096
H          2.89243        1.87398       -0.75495
H          2.95698        0.26080       -0.09104
H          5.04213       -0.79948       -0.29836
H          6.62182        0.16063       -0.37205
H          6.62705        2.52502       -0.13800
H          5.36733        3.11416        0.93387
H          5.26756        3.07622       -1.99472
H          5.60484        4.37994       -1.08180
