12
-1281.48
N          0.89376        0.02284        0.27360
C          2.17882       -0.00288        0.28768
N          2.94383        1.10877        0.15201
C          4.30923        1.22253        0.14228
C          5.02258        2.34740        0.00000
C          6.42858        2.34740        0.00000
N          7.57959        2.34740        0.00000
H          0.53146       -0.93035        0.39209
H          2.74377       -0.94307        0.41210
H          2.40398        1.96153        0.03824
H          4.81664        0.26547        0.26590
H          4.52918        3.30409       -0.12399
