16

C	1.163158	0.197696	-0.037886
C	2.615238	-0.098881	-0.037589
C	3.333533	-1.143899	-0.471061
C	4.755107	-0.732234	-0.094003
C	4.779164	0.740219	-0.589747
C	3.716578	0.801142	0.540195
N	4.51146	-0.224395	1.306465
H	0.589099	-0.600576	-0.529544
H	0.948194	1.146521	-0.558634
H	0.783812	0.309992	0.991946
H	3.016304	-2.070361	-0.948433
H	5.578608	-1.441044	-0.25863
H	4.476893	0.961934	-1.626489
H	5.711995	1.271801	-0.332666
H	3.421441	1.729139	1.05097
H	5.376245	0.236919	1.612516
