15

C	1.109242	-0.410551	-0.228624
N	2.509927	-0.159871	-0.021356
C	3.099803	1.06582	-0.009506
C	2.192488	2.254327	0.038606
C	4.462854	1.192024	-0.022308
C	5.11656	2.443716	0.031439
N	5.657622	3.473677	0.074212
H	0.903038	-1.470413	-0.026553
H	0.771922	-0.192078	-1.259452
H	0.485476	0.175358	0.462539
H	3.131728	-0.951014	-0.124025
H	1.565538	2.230674	0.944363
H	1.516186	2.269294	-0.830745
H	2.772101	3.18484	0.044189
H	5.097925	0.302457	-0.066589
