16

C	0.850564	-0.155187	-0.0713
C	2.380437	-0.07544	-0.007741
N	3.059016	-0.835065	-1.049445
C	2.827894	1.354631	-0.073109
C	3.326285	2.049485	0.961602
C	3.714037	3.416935	0.899485
C	4.053246	4.582779	0.873738
H	0.376307	0.388277	0.76039
H	0.518766	-1.20533	-0.029158
H	0.478032	0.27796	-1.014769
H	2.707682	-0.487558	0.963288
H	2.779374	-0.486453	-1.966621
H	2.756981	-1.807649	-1.018981
H	2.704457	1.859008	-1.040789
H	3.454871	1.551065	1.930989
H	4.356922	5.612843	0.84659
