11
-1192.32
N          1.00106        0.12202       -0.26977
C          2.26532       -0.03437       -0.13560
N          3.03579        1.07245       -0.04074
C          4.39731        1.03881        0.10516
O          5.08310        0.02740        0.16789
C          5.03233        2.33568        0.18742
C          5.55958        3.41377        0.25572
H          0.54885       -0.79908       -0.32841
H          2.77446       -1.01049       -0.09153
H          2.55080        1.95616       -0.08325
H          6.03846        4.36350        0.31742
