14
-1467.36
C          2.81143       -1.09664        0.40254
C          2.24945        0.10046        0.18853
C          2.89948        1.34166       -0.21609
C          2.14671        2.44134       -0.37254
N          4.25926        1.32413       -0.41849
C          5.09357        2.32994       -0.81483
O          6.30088        2.16800       -0.95395
H          2.19094       -1.93762        0.70126
H          3.86963       -1.30067        0.29785
H          1.16971        0.16011        0.33186
H          1.07326        2.42158       -0.20430
H          2.54208        3.40529       -0.66618
H          4.75597        0.45747       -0.26591
H          4.61337        3.29833       -1.00705
