21
-1926.
C          0.96597        1.77087        1.03948
N          2.41807        1.88562        1.09097
C          3.03328        1.30770       -0.10713
C          4.57211        1.42224       -0.07095
C          5.15637        0.68129       -1.28147
C          5.02175        2.89602       -0.04217
N          6.47830        3.02577        0.03283
H          0.53289        2.22970        1.93353
H          0.64740        0.72393        1.00953
H          0.55729        2.29527        0.16976
H          2.76227        1.39616        1.91729
H          2.65327        1.81612       -1.00220
H          2.75376        0.24926       -0.18352
H          4.93791        0.92138        0.83615
H          4.84805        1.15328       -2.22060
H          4.81680       -0.35995       -1.29942
H          6.25038        0.66523       -1.25179
H          4.59085        3.41143        0.82284
H          4.66861        3.41481       -0.94051
H          6.80915        2.59309        0.89360
H          6.71748        4.01451        0.10400
