19
-1913.22
C          1.34696       -0.36734       -0.69297
C          2.65372       -0.20438        0.06733
C          3.03044        1.24239        0.20875
C          4.16180        1.76802       -0.28464
C          4.51072        3.16028       -0.12857
C          5.64615        3.68410       -0.61561
C          6.03033        5.11994       -0.46425
H          1.08870       -1.42792       -0.77730
H          1.42360        0.04410       -1.70529
H          0.52295        0.14047       -0.17982
H          3.44148       -0.76790       -0.44583
H          2.54924       -0.63948        1.06764
H          2.33139        1.87023        0.75794
H          4.85988        1.13396       -0.82732
H          3.81154        3.79538        0.41091
H          6.35125        3.05657       -1.15566
H          5.28094        5.69402        0.08982
H          6.15166        5.57884       -1.45016
H          6.98208        5.19599        0.07035
