20
-1867.54
C          1.35565       -0.46557        0.35732
C          2.82604       -0.15221        0.64678
N          3.65575       -1.19772        0.02163
C          3.26064        1.25602        0.15170
C          2.39284        2.36632        0.75446
C          4.73604        1.55036        0.48336
O          5.61279        0.68985       -0.23515
H          0.69092        0.18696        0.93051
H          1.10937       -1.49471        0.64315
H          1.12263       -0.34568       -0.70591
H          2.98426       -0.21045        1.73089
H          3.43060       -1.24794       -0.97585
H          3.38406       -2.10833        0.39921
H          3.14594        1.28725       -0.94020
H          2.40193        2.32645        1.84922
H          1.35492        2.29152        0.41592
H          2.75552        3.35426        0.44947
H          4.93433        1.42789        1.55442
H          4.99938        2.57747        0.20933
H          5.22996       -0.21087       -0.13518
