17
-1712.7
C          1.01078        0.06560        0.39637
C          2.46731        0.03272       -0.04843
C          2.86309       -1.30991       -0.68153
C          2.68511       -1.09040       -2.14900
C          3.71926       -0.32076       -2.92747
C          2.52584        0.38206       -2.36306
O          2.65620        1.03097       -1.07517
H          0.75653        1.05625        0.78802
H          0.81797       -0.67866        1.17466
H          0.33222       -0.12239       -0.44305
H          3.11738        0.27036        0.80005
H          2.26618       -2.14478       -0.30186
H          3.91632       -1.52950       -0.47005
H          2.00808       -1.76860       -2.64477
H          4.68418       -0.12644       -2.47473
H          3.75667       -0.46553       -4.00075
H          1.75758        0.73147       -3.04204
