19
-1776.32
N          1.51842        3.16097        1.77688
C          2.40056        3.27967        0.61653
C          3.19592        1.98982        0.41978
C          4.06377        2.02169       -0.84340
N          5.08109        3.07492       -0.75036
C          6.43092        2.57477       -0.50697
C          6.01832        3.06121       -1.87032
H          1.03107        4.04623        1.91149
H          2.08437        3.02310        2.61377
H          3.07138        4.13316        0.76713
H          1.79176        3.48494       -0.26935
H          2.50127        1.14351        0.33625
H          3.82518        1.79482        1.29863
H          3.42155        2.21987       -1.71084
H          4.49559        1.02426       -0.99532
H          6.58279        1.51230       -0.35854
H          7.07121        3.21566        0.08862
H          6.37410        4.03098       -2.19479
H          5.87065        2.33437       -2.65988
