18
-1714.67
C          2.43993       -0.49357       -1.51650
C          2.33381        0.10067       -0.12123
C          3.50890        1.03280        0.15964
O          3.42041        2.25199       -0.63139
C          3.06960        3.02002        0.55022
C          3.41949        1.84317        1.47269
N          4.76527        2.03846        2.03818
H          1.60789       -1.17980       -1.70225
H          3.37561       -1.04948       -1.63635
H          2.41441        0.28872       -2.28193
H          2.32847       -0.71206        0.61404
H          1.38020        0.63232       -0.02306
H          4.47204        0.53205       -0.00473
H          3.67396        3.92762        0.64128
H          2.00954        3.29376        0.53326
H          2.65082        1.55102        2.19100
H          5.45034        2.36445        1.35256
H          5.16500        1.19398        2.44583
