13
-1405.33
C          1.00153       -0.03988       -0.00709
C          2.46965        0.11457        0.00095
C          3.31091        1.20918        0.00445
C          4.61612        0.68020        0.01204
O          5.78251        1.33976        0.01773
C          4.50832       -0.68503        0.01270
O          3.19498       -1.04188        0.00587
H          0.50415        0.93491        0.00132
H          0.67046       -0.59910        0.87343
H          0.67845       -0.58002       -0.90223
H          3.00532        2.24471        0.00177
H          5.62347        2.29865        0.01593
H          5.22015       -1.49694        0.01734
