19
-1852.56
C          0.82161       -0.12792        0.14876
C          2.30733        0.01792        0.26745
C          3.05396        1.12100        0.05053
C          2.46393        2.46482       -0.31087
C          4.57199        1.15191        0.16951
C          5.26784       -0.11436        0.66168
O          5.10399        1.46458       -1.11687
H          0.59141       -1.03101       -0.42628
H          0.33739        0.70651       -0.36176
H          0.37754       -0.23676        1.14268
H          2.79791       -0.91145        0.55109
H          1.38183        2.51621       -0.17201
H          2.68316        2.70776       -1.35551
H          2.89224        3.24917        0.32298
H          4.85373        1.96759        0.84579
H          5.11254       -0.95183       -0.02804
H          4.92369       -0.40282        1.65988
H          6.35122        0.04624        0.70672
H          4.70522        0.83476       -1.74171
