13
-1313.99
C          3.38007       -1.31918        0.39707
C          2.57623       -0.05382        0.25186
O          1.35048       -0.05453        0.35324
C          3.26858        1.23564       -0.01543
C          4.59491        1.38111       -0.09175
N          5.27143        2.54703       -0.34509
H          4.03651       -1.24999        1.26818
H          3.95889       -1.50563       -0.51121
H          2.69948       -2.16315        0.54561
H          2.60076        2.07970       -0.15282
H          5.27407        0.54072        0.03755
H          4.72531        3.39700       -0.21822
H          6.19430        2.60371        0.08114
