16
-1565.31
C          0.93401        0.08211       -0.15225
C          2.38447        0.21703        0.14386
O          3.21571       -0.74927       -0.50553
C          3.36996        0.62107       -0.92752
C          4.73544        1.21717       -0.62668
C          5.87186        1.17163       -1.61900
N          5.16498        2.41716       -1.35103
H          0.41567        1.01745        0.07856
H          0.49647       -0.71081        0.46179
H          0.74867       -0.15990       -1.20357
H          2.59203        0.45744        1.17714
H          2.95486        0.87320       -1.90003
H          5.02820        1.18616        0.42176
H          5.69083        0.71419       -2.58306
H          6.88249        1.08801       -1.24208
H          5.71547        3.02523       -0.74268
