17

C	0.96688	0.127276	-0.618587
C	2.353433	0.058875	-0.04029
C	2.869764	-1.103749	0.389114
C	3.138101	1.319337	0.033784
C	2.458179	2.661052	-0.02338
N	4.414241	1.222224	0.173817
N	5.153131	2.331302	0.325561
H	0.960967	0.625476	-1.602276
H	0.279071	0.693547	0.031775
H	0.546097	-0.87939	-0.744842
H	2.305995	-2.036186	0.303452
H	3.871367	-1.14052	0.821546
H	1.370181	2.58718	-0.125411
H	2.825184	3.264736	-0.874955
H	2.67617	3.236975	0.893963
H	6.127763	2.163168	0.106791
H	4.801556	3.199086	-0.080753
