15
-1506.04
C          0.65274        0.13825       -0.01010
C          2.12550        0.00442        0.20200
C          3.00123        0.98475       -0.05485
C          4.44359        0.77219        0.18210
N          5.31290        1.70035       -0.05660
N          6.59856        1.26206        0.24414
C          7.46104        2.19043        0.00240
H          0.30857       -0.61869       -0.72126
H          0.37895        1.12339       -0.40065
H          0.12486       -0.01291        0.93628
H          2.46759       -0.95501        0.58654
H          2.70797        1.95548       -0.43784
H          4.74058       -0.21821        0.57252
H          8.53066        2.00667        0.18689
H          7.18344        3.18409       -0.38867
