16

C	1.264933	0.078185	0.580786
C	2.424779	-0.066075	-0.065207
C	3.010463	-1.370943	-0.584392
N	4.464649	-1.204397	-0.619426
C	4.700693	0.217749	-0.686651
C	4.008451	0.980597	-1.758552
C	3.425958	0.984803	-0.355574
H	0.909607	1.06057	0.902539
H	0.631611	-0.783728	0.809585
H	2.628131	-1.561577	-1.603652
H	2.720828	-2.241647	0.021323
H	4.852368	-1.539184	0.25955
H	5.683146	0.549417	-0.341893
H	4.474761	1.912863	-2.085534
H	3.483578	0.440687	-2.551907
H	3.412135	1.916	0.215405
