11
-1125.26
C         -0.36169        1.16670        0.13911
O         -1.20059       -0.00116        0.16431
C         -0.36386       -1.17001        0.12619
C          1.02059       -0.66781       -0.02654
C          1.02193        0.66282       -0.01912
H         -0.48952        1.71437        1.07730
H         -0.66472        1.80042       -0.69906
H         -0.66810       -1.79371       -0.71883
H         -0.49287       -1.72794        1.05799
H          1.89119       -1.29871       -0.12234
H          1.89387        1.29408       -0.10799
