13
-1315.23
N          1.29569       -0.24706       -0.82840
C          2.52450       -0.25013       -0.27914
N          3.03510       -1.21498        0.39033
O          3.16599        0.91249       -0.49478
C          4.49839        0.99323        0.02904
C          5.05277        2.31595       -0.29178
C          5.50794        3.39775       -0.55403
H          0.97394        0.68453       -1.06569
H          0.59765       -0.80910       -0.36264
H          2.37299       -1.99364        0.39542
H          5.12099        0.21358       -0.42478
H          4.47677        0.85984        1.11679
H          5.90862        4.35589       -0.78873
