16
-1643.1
C          0.99886       -0.08991       -0.12866
C          2.45000        0.14865        0.07702
C          3.11966        1.28561       -0.15963
C          4.56990        1.07076        0.16269
N          4.69998       -0.31846        0.68692
C          4.48180       -1.36344       -0.31215
C          3.33984       -0.90936        0.55282
H          0.83022       -1.06466       -0.59683
H          0.55536        0.67187       -0.77997
H          0.47047       -0.07246        0.83005
H          2.70589        2.21006       -0.52427
H          5.20023        1.22131       -0.72004
H          4.88585        1.77400        0.93997
H          4.93068       -2.32394       -0.09136
H          4.50636       -1.08697       -1.35944
H          3.01767       -1.52063        1.38775
