19

N	0.865063	2.302916	-0.359479
C	2.280723	2.32121	-0.673309
C	3.043881	1.349494	0.212006
C	4.53134	1.294209	-0.083075
C	5.356014	2.479779	0.469948
N	5.712717	1.655316	1.623288
C	5.344602	0.43438	0.906635
H	0.352359	2.927283	-0.97789
H	0.713435	2.654955	0.584732
H	2.754169	3.325545	-0.597275
H	2.405723	2.012298	-1.726579
H	2.598357	0.347217	0.090999
H	2.905974	1.624463	1.274024
H	4.700057	1.065791	-1.147756
H	4.806572	3.407952	0.711308
H	6.201024	2.745843	-0.195431
H	6.667802	1.722887	1.96394
H	6.18592	-0.089374	0.41097
H	4.779669	-0.306124	1.501246
