13
-1346.72
C          0.97993       -0.09066       -0.00110
C          2.48943        0.08019        0.00982
C          2.87157        1.50874       -0.00155
N          3.12162        2.32020        1.00502
N          3.42808        3.54480        0.44695
C          3.34134        3.38496       -0.85163
O          2.99301        2.12172       -1.22191
H          0.71748       -1.15320        0.01356
H          0.53673        0.35684       -0.89767
H          0.52109        0.38536        0.87246
H          2.92367       -0.42845       -0.85810
H          2.90426       -0.39932        0.90324
H          3.50619        4.10591       -1.63653
