16
-1605.31
C          0.97532       -0.34337       -0.05074
C          2.47387       -0.06919       -0.02735
O          3.07577       -0.62642       -1.19247
C          2.77256        1.43282        0.01958
C          4.27118        1.74259        0.08867
C          4.84860        1.36343        1.38423
N          5.29132        1.07545        2.41871
H          0.48900        0.03489        0.85351
H          0.78604       -1.41953       -0.12631
H          0.50211        0.12165       -0.92263
H          2.91084       -0.57410        0.84040
H          2.51075       -0.42506       -1.95871
H          2.25575        1.88940        0.87299
H          2.37884        1.90286       -0.89091
H          4.41142        2.82049       -0.05616
H          4.80970        1.24557       -0.72547
