17
-1672.03
C          2.11530       -0.64591        1.00064
C          2.44032        0.23050       -0.19820
N          2.77727        1.57934        0.21752
C          3.98053        1.81798        0.99426
C          4.17772        3.32795        0.78649
N          3.36717        3.70469       -0.40869
C          2.62514        2.65702       -0.60443
H          1.80448       -1.64143        0.66890
H          1.30337       -0.21314        1.59421
H          2.98414       -0.76582        1.65551
H          1.56380        0.25263       -0.85671
H          3.26596       -0.20596       -0.77212
H          4.83066        1.26208        0.58312
H          3.85702        1.56680        2.05172
H          5.23267        3.57131        0.62576
H          3.81686        3.89513        1.65236
H          1.88886        2.56552       -1.41899
