15
-1455.76
C          0.92145        1.06269        0.44153
N          2.13871        0.64390       -0.20926
C          3.17578        1.48646       -0.48202
N          3.13967        2.75938       -0.64812
C          4.50048        0.83929       -0.60508
C          5.45031        0.84647        0.56270
O          4.69134       -0.32230        0.23025
H          0.24041        0.21161        0.53468
H          0.41027        1.83856       -0.13561
H          1.13329        1.44388        1.44564
H          2.44924       -0.28735        0.06894
H          2.17320        3.07887       -0.57141
H          4.92117        0.81267       -1.60223
H          5.16775        1.40088        1.44911
H          6.51192        0.83592        0.35372
