14

C	0.930352	0.003465	-0.127712
C	2.416138	-0.063151	0.067873
O	2.775462	-0.146442	1.402509
C	3.290887	-0.777743	-0.937417
C	3.34942	0.72435	-0.803152
O	4.409212	1.298111	-0.109325
H	0.669423	0.082868	-1.192858
H	0.518124	0.873211	0.406134
H	0.455374	-0.903231	0.277903
H	3.572073	0.398509	1.493169
H	2.848389	-1.205143	-1.841776
H	4.128592	-1.338917	-0.512018
H	2.929915	1.339983	-1.611209
H	5.22889	1.094819	-0.5721
