16
-1625.21
N          0.95509       -0.00332       -0.01874
C          2.41719        0.00446        0.01063
C          2.97739        1.43282        0.00000
C          4.42139        1.43282        0.00000
C          5.61155        1.43282        0.00000
C          7.01755        1.43282        0.00000
C          7.71893        2.57108       -0.01145
H          0.62764       -0.96812       -0.02524
H          0.62817        0.41160       -0.89020
H          2.79516       -0.55676       -0.85178
H          2.75548       -0.52101        0.91107
H          2.60409        1.97966        0.87434
H          2.60863        1.96538       -0.88518
H          7.53266        0.47696        0.01059
H          7.23217        3.54171       -0.02101
H          8.80363        2.55275       -0.01036
