17
-1673.91
C          0.85018       -0.06019       -0.29822
C          2.33794        0.07784       -0.37358
C          3.08405        1.14163       -0.01421
C          2.56133        2.41540        0.57972
C          4.57461        1.03479       -0.19758
N          5.22551       -0.16186       -0.24417
N          5.34804        2.06990       -0.30289
H          0.58983       -0.86631        0.39397
H          0.45738       -0.32010       -1.28622
H          0.34038        0.84783        0.02812
H          2.82814       -0.79149       -0.81035
H          1.54488        2.31928        0.96818
H          2.56219        3.21295       -0.16918
H          3.18435        2.72905        1.42412
H          4.86657       -0.87440        0.37884
H          6.22659       -0.02338       -0.14872
H          4.80922        2.93792       -0.28845
