17
-1564.18
C          1.06621       -0.07915        0.04283
C          2.57348        0.07690        0.03207
S          3.05799        1.79450       -0.00403
O          2.63713        2.34896       -1.27634
O          2.65084        2.39844        1.24993
C          4.84027        1.69647       -0.01215
C          5.47615        3.07169       -0.03941
H          0.79356       -1.13858        0.06571
H          0.61673        0.37020       -0.84843
H          0.62560        0.40612        0.91956
H          3.00110       -0.40401       -0.85257
H          3.01017       -0.36893        0.93052
H          5.13384        1.12215       -0.89572
H          5.14371        1.15304        0.88744
H          5.17251        3.62918       -0.93122
H          6.56700        2.98639       -0.04481
H          5.18368        3.65893        0.83689
