12

C	1.77693	-0.25599	-1.173889
C	2.231518	0.085936	0.03172
C	3.294164	1.096593	0.238338
O	3.798439	1.760859	-0.893876
C	3.033924	2.536922	-0.003202
C	3.7313	3.5576	0.75277
N	4.272215	4.371469	1.372861
H	0.990059	-1.003949	-1.295414
H	2.19326	0.204665	-2.074409
H	1.839641	-0.382324	0.94089
H	4.04868	0.861502	1.0031
H	2.036599	2.829087	-0.357739
