17

C	2.441552	-0.538323	1.235608
C	2.461232	0.203446	-0.099336
C	2.920523	1.632903	0.023422
C	2.067536	2.671446	-0.04182
C	4.343564	1.880592	0.239396
N	5.194499	0.923286	0.274766
N	6.494986	1.196661	0.402381
H	2.088923	-1.573035	1.10428
H	1.77191	-0.039933	1.953701
H	3.448687	-0.576373	1.674386
H	1.455458	0.191583	-0.548405
H	3.135432	-0.323865	-0.793627
H	0.998496	2.519489	-0.21256
H	2.415121	3.703133	0.068539
H	4.663492	2.934349	0.35813
H	7.031116	0.416781	0.760537
H	6.754843	2.10048	0.802053
