20
-1927.48
C          0.97080        0.00864        0.03335
C          2.48823        0.03294        0.03143
C          3.08227        1.12978        0.90086
C          4.49845        0.62648        1.10842
N          4.31248       -0.80939        1.33508
C          5.50413       -1.58036        1.00971
C          3.12693       -1.24344        0.57960
H          0.59742       -0.81298       -0.58759
H          0.56955        0.94571       -0.36799
H          0.57116       -0.12354        1.04517
H          2.83586        0.18196       -0.99960
H          2.55437        1.20948        1.85973
H          3.05755        2.10812        0.41031
H          5.09533        0.82367        0.20843
H          4.98090        1.11059        1.96237
H          5.34840       -2.64005        1.23931
H          6.35474       -1.24411        1.61157
H          5.77560       -1.49406       -0.04822
H          3.36237       -1.92861       -0.24452
H          2.45381       -1.76973        1.26552
