12
-1238.65
O          1.37421        0.14232        0.68260
C          2.41309       -0.06912        0.08221
N          2.87547       -1.26510       -0.39344
O          4.22041       -1.19882       -0.85371
C          4.61453        0.18993       -0.70009
C          3.95424        1.20628       -1.58502
C          3.42351        0.96195       -0.19433
H          2.50694       -2.15166       -0.08008
H          5.59187        0.40834       -0.28942
H          4.47947        2.13594       -1.76781
H          3.37387        0.85292       -2.42940
H          3.58749        1.70863        0.56940
