21
-1924.57
C          1.90759       -0.94050        2.30869
C          1.79906       -0.16812        0.99885
C          2.58542        1.16467        0.95569
C          2.08269        2.18633        2.01498
N          0.65781        2.50329        1.88118
N          4.02805        0.86625        1.07841
C          4.88269        2.02064        0.83314
H          1.34390       -1.87641        2.23652
H          1.49426       -0.37222        3.14705
H          2.94602       -1.19603        2.54134
H          0.73930        0.02227        0.79040
H          2.14775       -0.81753        0.18497
H          2.41204        1.59515       -0.04046
H          2.63285        3.12842        1.91841
H          2.27090        1.81147        3.02661
H          0.49360        2.95038        0.98094
H          0.40356        3.18828        2.59153
H          4.26569        0.13456        0.40719
H          4.81381        2.75031        1.64393
H          4.64627        2.50674       -0.11849
H          5.92531        1.69224        0.78995
