16
-1501.14
C          1.24314       -0.37894       -0.04210
C          2.74849       -0.31367        0.17819
C          3.33491        1.03892       -0.22022
O          2.75987        2.06901        0.59030
C          4.85742        1.06903       -0.04308
O          5.34419        2.36127       -0.41476
H          0.86460       -1.36939        0.23150
H          0.99267       -0.19869       -1.09265
H          0.71735        0.36149        0.56936
H          3.22811       -1.11165       -0.39938
H          2.94655       -0.50701        1.23926
H          3.08263        1.27781       -1.25990
H          3.38550        2.81997        0.55298
H          5.35594        0.31210       -0.65556
H          5.12962        0.91522        1.00576
H          5.25175        2.43909       -1.38082
