13
-1273.48
C          0.42650        1.44650        0.20216
C          1.33820        0.28524       -0.12880
O          0.90086       -0.83456        0.64079
N         -0.33473       -1.34317        0.18985
C         -1.22631       -0.43775       -0.06721
C         -1.02530        1.04990        0.01182
H          0.67507        2.32438       -0.40178
H          0.57343        1.72750        1.25174
H          2.37090        0.51287        0.15833
H          1.33069        0.03444       -1.19666
H         -2.22936       -0.78064       -0.37510
H         -1.40632        1.47150       -0.92508
H         -1.65372        1.44629        0.81531
