17

C	2.018558	0.38472	1.521822
C	3.050758	1.15326	1.173998
C	3.796668	1.047718	-0.126082
C	5.280868	0.834739	0.069518
C	5.834098	-0.379526	-0.093399
C	6.119425	1.968673	0.469067
C	5.725235	3.242009	0.610368
H	1.515698	0.506178	2.484904
H	1.63638	-0.396999	0.856161
H	3.407755	1.917296	1.875432
H	3.641102	1.971719	-0.712532
H	3.379483	0.223475	-0.724329
H	5.236694	-1.244641	-0.392037
H	6.903179	-0.542962	0.070714
H	7.17157	1.724805	0.658239
H	4.693651	3.559779	0.435033
H	6.433067	4.019726	0.906505
