12
-1247.44
C          1.01990        0.01128       -0.11901
C          2.50738       -0.08635        0.02650
C          3.17296       -1.25398        0.02546
C          3.20622        1.20495        0.24928
O          4.40092        1.28069       -0.37102
O          2.71912        2.12903        0.87855
H          0.76091        0.66450       -0.95886
H          0.56780        0.41845        0.79137
H          0.56417       -0.96662       -0.30760
H          2.64578       -2.19497       -0.10693
H          4.24147       -1.32063        0.20698
H          4.57911        0.52755       -0.96279
