13
-1312.23
O          0.93597       -0.08100        0.13346
C          2.35828        0.01774        0.09434
C          2.77797        1.30719       -0.55977
C          3.80399        1.11583       -1.62248
N          4.24331       -0.01391       -2.07207
N          3.73107       -1.20929       -1.58333
C          2.87208       -1.19809       -0.61607
H          0.59966        0.65629        0.67154
H          2.71627       -0.03520        1.12827
H          3.20751        1.98415        0.18803
H          1.93078        1.84116       -1.00490
H          4.22148        2.03407       -2.06799
H          2.50516       -2.17112       -0.24888
