16
-1609.38
C          1.42078       -0.62409       -0.18009
N          2.82692       -0.34275       -0.05835
C          3.34267        0.86362       -0.46344
O          2.69059        1.75827       -0.98404
C          4.79567        1.02287       -0.17800
C          5.55277        2.23385       -0.67195
C          5.24997        2.08991        0.79086
H          1.26383       -1.69438       -0.02849
H          1.06410       -0.33078       -1.17129
H          0.88044       -0.05728        0.58270
H          3.40645       -0.96670        0.48560
H          5.35873        0.09414       -0.17212
H          5.00913        2.98785       -1.23174
H          6.57568        2.09251       -1.00009
H          6.06959        1.85603        1.45956
H          4.50295        2.75275        1.21480
