14

C	0.958267	-0.034909	-0.013193
C	2.412322	-0.011203	-0.004626
C	3.624223	0.005536	0.003761
C	5.084375	0.052402	0.012233
C	5.618695	1.452792	-0.020229
N	6.427768	1.834564	0.881246
O	6.836674	3.127482	0.707543
H	0.544994	0.985678	-0.028876
H	0.562693	-0.540436	0.882049
H	0.571035	-0.566275	-0.897024
H	5.470636	-0.503528	-0.862665
H	5.487331	-0.448194	0.907824
H	5.301201	2.135179	-0.824099
H	7.419986	3.279003	1.458415
