16

C	0.963097	0.014126	0.083985
C	2.469416	0.082614	0.005708
C	3.215897	1.055955	0.941637
C	4.161293	-0.136908	1.223098
N	3.185543	-1.040801	0.638487
C	5.460106	-0.03287	0.467538
O	5.716487	-0.682542	-0.512022
H	0.579899	-0.825868	-0.516001
H	0.503471	0.939874	-0.297717
H	0.642191	-0.140491	1.125305
H	2.783425	0.24613	-1.044166
H	2.625868	1.338583	1.824578
H	3.655609	1.959486	0.494429
H	4.406227	-0.315562	2.289381
H	3.601119	-1.711086	-0.00863
H	6.194331	0.707141	0.88507
