15
-1523.55
C          2.49073       -0.55899       -0.12844
O          2.04828        0.79027       -0.03175
C          2.99291        1.79990       -0.00227
C          2.34447        3.15342        0.11252
C          4.32441        1.60743       -0.05420
C          5.32416        2.69694       -0.05955
O          6.52460        2.45016       -0.08650
H          1.60572       -1.20174       -0.15341
H          3.08611       -0.83798        0.74687
H          3.05170       -0.72232       -1.05432
H          1.34326        3.06556        0.54943
H          2.24092        3.60899       -0.87713
H          2.90661        3.82869        0.76438
H          4.77312        0.62368       -0.11911
H          4.94550        3.72928       -0.05088
