16
-1552.8
C          1.05381        0.05862       -0.13372
C          2.52989        0.19221       -0.01651
O          3.26938       -0.38592       -1.10040
C          3.38741        1.03754       -0.94412
C          2.79739        1.81920       -2.07611
C          4.73435        1.48211       -0.46311
H          0.55931        0.82205        0.47527
H          0.73939       -0.92317        0.23576
H          0.69261        0.15408       -1.16145
H          2.87827        0.00221        0.99099
H          1.97030        1.29657       -2.56511
H          3.55405        2.01063       -2.84453
H          2.42772        2.78399       -1.71515
H          5.11815        0.83675        0.33425
H          4.67767        2.50285       -0.07164
H          5.46002        1.46754       -1.28277
