15

O	1.245445	0.022606	0.751595
N	2.374599	-0.023517	-0.034425
C	2.905995	1.122866	-0.162681
C	2.462933	2.428487	0.436667
C	3.372689	3.435769	-0.266472
N	4.575578	2.66049	-0.514284
C	4.148215	1.355325	-0.983228
H	0.955543	-0.894831	0.769958
H	2.646194	2.401073	1.524231
H	1.386111	2.60101	0.291699
H	2.874612	3.790697	-1.196589
H	3.591954	4.322904	0.347801
H	5.226992	3.118809	-1.143385
H	3.874278	1.326438	-2.06289
H	4.909771	0.577862	-0.813996
