17

C	3.402411	1.688428	3.243917
C	3.891687	1.332191	1.883934
N	4.547486	2.159086	1.166899
N	4.928382	1.839339	-0.080017
C	6.02178	2.608484	-0.637661
C	5.763298	4.106014	-0.558311
O	5.839015	4.601354	0.743129
H	2.302982	1.616218	3.304361
H	3.700431	2.714243	3.500565
H	3.808578	1.003352	4.006491
H	3.660464	0.32129	1.495674
H	4.944577	0.840675	-0.294098
H	6.120652	2.307085	-1.692523
H	6.986053	2.39393	-0.132315
H	4.780755	4.310275	-1.036073
H	6.52737	4.625791	-1.160405
H	5.273929	4.012265	1.271084
