11
-1208.65
N          0.95527       -0.05271       -0.13321
C          2.23025       -0.06844        0.01402
O          2.91095        1.11771        0.04933
C          4.29606        1.07544        0.21432
C          4.99116       -0.05080        0.33781
C          4.15597       -1.24934        0.28163
N          2.87834       -1.26071        0.13185
H          0.68157        0.93019       -0.20018
H          4.71321        2.07254        0.22741
H          6.06042       -0.11462        0.46703
H          4.69356       -2.20682        0.37820
