20

C	0.979741	0.012458	0.010396
C	2.502526	0.024565	0.030923
C	3.045713	0.043971	-1.40601
C	3.077707	1.188066	0.851028
C	4.464172	0.695409	1.284953
C	4.375203	-0.843573	1.201734
N	2.998434	-1.105421	0.813293
H	0.585796	-0.034245	1.036096
H	0.601396	-0.865598	-0.538632
H	0.579778	0.910391	-0.486248
H	4.146676	0.077253	-1.427375
H	2.674415	0.918334	-1.963902
H	2.726551	-0.859965	-1.950807
H	2.435981	1.343126	1.731715
H	3.105922	2.13208	0.286156
H	5.249472	1.073885	0.613193
H	4.722111	1.044691	2.294963
H	5.121924	-1.226141	0.476026
H	4.601282	-1.328784	2.166288
H	2.87697	-1.996253	0.33909
