10
-958.05
O          0.98816       -0.07104       -0.30156
C          2.35123       -0.03047        0.08646
C          2.78788        1.39441        0.05399
C          3.34085        2.04766        1.08444
H          0.70703       -0.99831       -0.23450
H          2.93751       -0.62064       -0.62423
H          2.44887       -0.46992        1.08422
H          2.62935        1.92293       -0.88311
H          3.50998        1.56647        2.04242
H          3.62668        3.09059        0.98830
