12
-1291.06
C          1.14695       -0.01329        0.18802
C          2.43450        0.00823       -0.14454
N          3.16499        1.12871       -0.31181
C          4.45438        0.82645       -0.65132
O          5.35686        1.61408       -0.86953
C          4.50973       -0.68034       -0.69509
O          3.17782       -1.13377       -0.35890
H          0.62887       -0.95975        0.30373
H          0.57973        0.89520        0.35223
H          2.83180        2.07450       -0.20725
H          4.76092       -1.02622       -1.70033
H          5.21404       -1.06043        0.04838
