19

C	1.228002	-0.237677	0.34103
N	2.627399	0.080669	0.495936
C	2.980214	1.468296	0.251918
C	2.535144	2.35727	1.422636
N	2.735443	3.754079	1.105957
C	4.468371	1.57021	0.084026
C	5.091685	2.253382	-0.877687
H	1.083264	-1.324457	0.435179
H	0.790788	0.084409	-0.630124
H	0.627006	0.23109	1.135681
H	3.179492	-0.509835	-0.119931
H	2.491235	1.880911	-0.65919
H	3.055301	1.989323	2.333491
H	1.458798	2.193964	1.595121
H	3.728267	3.943846	0.977634
H	2.418833	4.345236	1.870191
H	5.051822	1.048713	0.855165
H	4.529923	2.780255	-1.655756
H	6.183104	2.311096	-0.923168
