13

C	1.022223	0.012218	0.051114
C	2.352312	-0.029305	0.016286
C	3.279308	1.160202	0.077125
O	4.521746	0.714167	-0.445023
C	4.563207	-0.629343	-0.592727
O	5.522042	-1.201284	-1.010835
C	3.242805	-1.221362	-0.132029
H	0.422877	-0.900341	0.000573
H	0.486004	0.962039	0.133473
H	3.43289	1.505505	1.115362
H	2.924072	2.014049	-0.519096
H	2.8918	-1.982235	-0.843016
H	3.424323	-1.734922	0.829211
