18
-1710.63
C          1.02125       -0.35087       -0.03763
N          2.48017       -0.42932       -0.08471
C          3.00297       -0.65264       -1.42986
C          3.09810        0.70627       -0.77144
C          4.42106        1.21635       -0.27065
C          4.28207        1.86642        1.10427
O          4.06087        0.87870        2.10727
H          0.71539        0.28481        0.79971
H          0.60844       -1.34981        0.13558
H          0.56059        0.04940       -0.94881
H          2.30364       -0.78567       -2.24666
H          3.89188       -1.26950       -1.48969
H          2.45223        1.50287       -1.12393
H          4.79821        1.95527       -0.98612
H          5.15248        0.40104       -0.21848
H          3.45092        2.57851        1.13118
H          5.20187        2.39828        1.36550
H          3.43998        0.22633        1.71940
