15

C	0.950904	0.016876	-0.038701
C	2.445989	-0.080351	-0.021252
C	3.093805	-1.26766	-0.11565
N	2.511992	-2.479539	-0.352361
C	3.196068	1.178211	0.208002
N	4.531997	1.176053	-0.131509
O	2.675416	2.165659	0.697975
H	0.53645	-0.038007	-1.060564
H	0.650821	0.979893	0.396099
H	0.476694	-0.784538	0.554593
H	4.18187	-1.307924	-0.001101
H	1.502592	-2.543279	-0.315625
H	3.003007	-3.313952	-0.065036
H	4.84242	0.596375	-0.899139
H	4.984737	2.077863	-0.046671
