16
-1583.2
C         -1.48933        0.77528        0.26430
C         -1.36631       -0.68568       -0.15377
C         -0.01840       -1.22739        0.21246
N          1.06519       -1.10742       -0.76663
C          1.11415       -0.25468        0.41930
C          0.84214        1.22004        0.33484
O         -0.41287        1.53481       -0.28638
H         -2.42561        1.19205       -0.12023
H         -1.49889        0.88531        1.35554
H         -1.51335       -0.77517       -1.23700
H         -2.15243       -1.27425        0.33150
H         -0.05403       -2.14179        0.78971
H          1.71797       -1.88825       -0.68551
H          1.89094       -0.48723        1.13695
H          0.84120        1.65399        1.34136
H          1.63250        1.71710       -0.23644
