16

C	1.426932	-0.632827	-0.243717
N	2.81783	-0.340157	-0.026795
C	3.340767	0.903821	-0.202178
O	2.676332	1.860391	-0.561974
C	4.805556	1.020118	0.079227
C	5.574971	2.009672	-0.75946
C	5.276749	2.32897	0.661726
H	1.286308	-1.384683	-1.038098
H	0.938891	0.300593	-0.554055
H	0.938693	-0.997617	0.67528
H	3.432361	-1.079052	0.284453
H	5.327561	0.110647	0.392734
H	4.991781	2.533153	-1.521546
H	6.59683	1.74314	-1.040297
H	6.085662	2.292546	1.395867
H	4.493046	3.067105	0.852752
