18
-1712.95
N          0.87226        0.06883       -0.05413
C          2.32316       -0.07169       -0.12112
C          3.01635        1.26370        0.16278
C          4.50792        1.14173        0.04680
C          5.40676        1.98902        0.90930
C          5.30409        0.51044        1.15704
O          6.41495       -0.29258        0.73951
H          0.43925       -0.83184       -0.25465
H          0.55544        0.70556       -0.78415
H          2.60821       -0.44385       -1.11203
H          2.64371       -0.82105        0.61070
H          2.73451        1.62027        1.16252
H          2.67493        2.02251       -0.55262
H          4.81934        0.95343       -0.97486
H          4.95626        2.64986        1.64122
H          6.31505        2.38339        0.46909
H          4.77066        0.18930        2.04723
H          6.99717        0.17412        0.11670
