13

C	1.075054	1.17047	-0.369253
O	-0.198389	1.592969	0.067616
C	-1.271188	0.802939	-0.104941
C	-1.404149	-0.53305	-0.120102
O	-0.495798	-1.528788	0.044565
C	0.828721	-1.327318	0.15179
C	1.534213	-0.19754	0.017011
H	1.777838	1.91524	0.031283
H	1.109348	1.26348	-1.472569
H	-2.191488	1.381053	-0.228693
H	-2.402565	-0.945728	-0.269024
H	1.328225	-2.271601	0.381952
H	2.614499	-0.309444	0.145016
