15
-1551.27
C          2.21088       -0.50660       -1.39703
C          2.46380        0.02262        0.00615
C          3.05498        1.39103       -0.00248
N          2.26697        2.47383       -0.00381
N          3.12746        3.50409       -0.01307
C          4.43495        3.11877       -0.01683
C          4.42477        1.74636       -0.00946
H          1.78064       -1.51214       -1.35206
H          3.14084       -0.55975       -1.97369
H          1.51384        0.13785       -1.94367
H          3.13794       -0.66251        0.53398
H          1.52157        0.02833        0.56730
H          2.74879        4.44528       -0.01623
H          5.23776        3.84226       -0.02401
H          5.28173        1.08691       -0.01041
