13

C	0.953585	0.002383	0.021064
C	2.445292	0.052662	0.003609
C	3.238255	1.167409	-0.038489
S	4.889941	0.716792	-0.00926
N	4.585164	-0.915484	0.041021
C	3.287611	-1.119343	0.051865
N	2.774435	-2.391736	0.164717
H	0.515187	1.008331	0.059828
H	0.58978	-0.562799	0.895351
H	0.552693	-0.496745	-0.878676
H	2.914485	2.208423	-0.074372
H	1.892788	-2.559627	-0.302764
H	3.457035	-3.125445	0.016277
