14
-1324.02
C          0.84625       -0.00977       -0.23400
C          2.32325       -0.02941        0.05041
C          2.69140       -0.00700        1.50836
C          3.22749       -0.76933       -0.91158
N          3.18912        0.68929       -0.89211
H          0.63183       -0.00360       -1.30849
H          0.38449        0.88088        0.20499
H          0.36583       -0.89374        0.19805
H          3.77593       -0.02935        1.66198
H          2.26443       -0.87579        2.02009
H          2.30295        0.89839        1.98631
H          2.79003       -1.24045       -1.78364
H          4.13270       -1.23625       -0.54262
H          4.01154        1.07187       -0.42255
