15

C	0.833386	0.137517	-0.285534
C	2.29456	-0.01971	0.047951
C	2.624451	0.039908	1.525878
O	2.004574	-0.961298	2.284534
C	3.174997	-0.832203	-0.820713
N	3.221722	0.62488	-0.871736
H	0.68311	0.123994	-1.373821
H	0.445473	1.096825	0.095995
H	0.241376	-0.681329	0.153895
H	2.3773	1.054599	1.904408
H	3.712706	-0.089974	1.655912
H	1.067382	-0.754288	2.349416
H	2.765044	-1.319491	-1.712499
H	3.997308	-1.379367	-0.344262
H	4.041392	0.974044	-0.373713
