16
-1606.3
C          1.27319       -0.09626        0.08382
C          2.74352       -0.01058       -0.13996
C          3.33847       -0.42291       -1.46596
N          3.25256        0.98527       -1.07862
C          4.53414        1.57053       -0.66725
C          5.14919        2.26678       -1.77273
C          5.65612        2.84064       -2.68388
H          0.96416        0.62952        0.84296
H          1.00587       -1.09579        0.44119
H          0.70066        0.10193       -0.82888
H          3.30776       -0.20977        0.76346
H          2.67452       -0.72570       -2.26699
H          4.30971       -0.90217       -1.47539
H          5.23275        0.82664       -0.26160
H          4.33995        2.28161        0.14487
H          6.10001        3.35467       -3.50461
