15
-1517.58
C          3.04802       -1.02895       -0.74439
C          2.51722        0.13519        0.07681
C          3.41841        1.36844       -0.00235
O          3.50866        1.83276       -1.37304
C          3.08529        3.13128       -1.23323
C          2.74612        3.43845        0.00003
O          2.88923        2.39311        0.87902
H          2.39010       -1.89703       -0.63717
H          4.04908       -1.31866       -0.41013
H          3.09942       -0.77582       -1.80776
H          2.40422       -0.16987        1.12386
H          1.51197        0.39073       -0.28129
H          4.43227        1.12563        0.34004
H          3.07055        3.73168       -2.12473
H          2.37462        4.36168        0.40610
