17
-1704.66
C          2.31114       -0.82187       -1.06313
C          2.11866        0.09299        0.13751
C          2.35792        1.54008       -0.20711
C          1.36898        2.44939       -0.20928
O          3.69464        1.86012       -0.39671
C          4.05501        2.77819       -1.35085
C          5.27380        3.32193       -1.38502
H          2.10154       -1.85921       -0.78274
H          3.33865       -0.77620       -1.43829
H          1.63556       -0.54977       -1.88087
H          2.80474       -0.20543        0.93928
H          1.10407       -0.04767        0.53005
H          0.34165        2.16521       -0.00894
H          1.56285        3.50133       -0.38707
H          3.28903        3.00697       -2.07842
H          6.01950        3.05994       -0.64242
H          5.54200        4.04027       -2.15104
