13

N	1.018982	0.438108	0.09081
C	2.399951	0.128042	0.012724
C	3.337156	1.13993	0.054073
O	3.137289	2.458117	0.164448
N	4.577928	0.603145	-0.035669
C	4.469291	-0.77112	-0.139031
C	3.133475	-1.095626	-0.111848
H	0.508801	0.132427	-0.735654
H	0.571673	0.001857	0.894667
H	2.170135	2.54359	0.210269
H	5.43407	1.138187	-0.032674
H	5.353386	-1.39746	-0.222721
H	2.721523	-2.101426	-0.174275
