14
-1448.88
C          0.89335       -0.11060        0.03189
C          2.40970       -0.01622       -0.02311
C          2.87039        1.40778       -0.03400
N          3.05970        2.13064        1.05056
C          3.48201        3.39679        0.69838
C          3.61167        3.62664       -0.65337
S          3.19188        2.21116       -1.52235
H          0.57928       -1.15891        0.06144
H          0.43315        0.35684       -0.84570
H          0.49702        0.38801        0.92356
H          2.78124       -0.55357       -0.90308
H          2.83410       -0.51882        0.85379
H          3.68386        4.12237        1.47678
H          3.92358        4.53027       -1.15617
