12

O	0.741603	0.919051	0.314561
N	2.035062	0.536709	0.248635
C	2.838838	1.532704	0.165226
C	4.257321	1.28041	0.087928
C	5.195722	2.244446	-0.002586
C	6.622445	1.915788	-0.076508
O	7.506178	2.733503	-0.157076
H	0.255499	0.088404	0.372112
H	2.456828	2.564724	0.152521
H	4.556858	0.225247	0.106908
H	4.934495	3.307816	-0.024097
H	6.847291	0.815897	-0.052013
