13
-1343.78
N          0.96579        0.03205       -0.08117
C          2.31295       -0.00284       -0.04177
C          3.16465        1.07499       -0.06655
O          4.45917        0.65512        0.00748
C          4.42738       -0.70607        0.07563
C          3.12887       -1.15289        0.04116
N          2.71656       -2.43717        0.07241
H          0.47162        0.90357        0.08549
H          0.44444       -0.78022        0.23289
H          3.02623        2.14451       -0.12458
H          5.39064       -1.18989        0.13729
H          1.77962       -2.65886       -0.24805
H          3.37675       -3.19016       -0.09371
