12

C	1.017389	-0.010505	-0.169219
C	2.504188	0.03948	0.024249
C	3.204275	-1.28773	0.009005
C	3.162892	1.190727	0.200498
H	0.563483	0.990036	-0.155616
H	0.540007	-0.617522	0.619109
H	0.761878	-0.492344	-1.12868
H	2.80684	-1.949935	0.797513
H	4.288422	-1.185483	0.15879
H	3.03516	-1.81009	-0.948753
H	2.640558	2.151724	0.210414
H	4.247197	1.211642	0.344221
