11

O	1.178094	-0.060856	-0.687113
C	2.372457	-0.049477	-0.075737
O	2.832806	-1.034655	0.418211
C	3.069421	1.293946	-0.03508
C	2.3734	2.444562	0.032324
C	4.494012	1.254456	0.015342
C	5.704768	1.212017	0.055075
H	1.039598	0.772054	-1.154239
H	1.279461	2.448367	0.045137
H	2.879398	3.407986	0.120252
H	6.777955	1.16466	0.094469
