15

C	2.190654	-0.782045	0.633008
C	2.984063	-0.212114	-0.532489
N	3.112864	1.21717	-0.420916
C	4.269149	1.719685	-0.368157
N	4.467502	3.08121	-0.250514
C	5.689042	3.697948	-0.184721
O	5.847046	4.885507	-0.077285
H	2.032312	-1.863772	0.508083
H	1.209271	-0.291333	0.705991
H	2.720146	-0.617983	1.58446
H	2.447397	-0.432373	-1.472544
H	3.969326	-0.7206	-0.604316
H	5.209895	1.134812	-0.412539
H	3.639226	3.670096	-0.20319
H	6.532628	2.96763	-0.24354
