14
-1328.89
C          0.88811        0.00915        0.01918
C          2.37864       -0.08423       -0.01216
C          3.19575        0.98219        0.01302
C          4.68688        0.90440       -0.01335
N          5.18801        1.64413       -1.16070
H          0.50021       -0.52207        0.89373
H          0.46729       -0.45298       -0.87906
H          0.53821        1.04522        0.06605
H          2.79739       -1.08644       -0.06047
H          2.77313        1.98358        0.06503
H          5.03698       -0.13255       -0.06139
H          5.08546        1.34656        0.90569
H          4.84746        1.19572       -2.01027
H          6.20258        1.56409       -1.18812
