10
-1076.21
C          1.47590       -0.40113        0.92732
O          2.83534       -0.24084        0.52533
C          3.23022        1.05583        0.44519
O          2.54547        2.04009        0.67887
C          4.60774        1.18026        0.03676
C          5.75559        1.28605       -0.30350
H          1.25636       -1.47187        0.96149
H          0.80274        0.06667        0.20190
H          1.31890        0.01590        1.92714
H          6.77258        1.38341       -0.60487
