17

C	2.863869	-0.970348	1.356436
C	3.627749	-0.443971	0.142348
C	3.636675	1.045414	0.078577
C	4.695793	1.879251	0.066551
C	6.143044	1.507268	0.097878
C	4.403279	3.327122	0.011222
O	5.246154	4.190235	-0.004741
H	2.826958	-2.070106	1.353835
H	1.826825	-0.599939	1.368469
H	3.341649	-0.647329	2.294015
H	3.144989	-0.82504	-0.776448
H	4.653079	-0.842336	0.137827
H	2.643204	1.517174	0.052867
H	6.304748	0.426538	0.197541
H	6.647129	2.021834	0.930458
H	6.64457	1.856056	-0.818969
H	3.310286	3.582567	-0.014757
