11

O	1.33377	-0.365168	0.783308
C	2.229046	-0.065208	0.05552
C	2.979968	1.283697	0.099422
C	2.61539	2.099617	1.253106
C	2.302138	2.768416	2.209647
C	4.418329	1.0399	-0.021081
C	5.59588	0.785785	-0.12994
H	2.604228	-0.740897	-0.754343
H	2.647872	1.804761	-0.823494
H	2.020429	3.355767	3.064264
H	6.644041	0.566199	-0.221319
