15

C	3.279113	-1.435546	0.429793
C	2.581428	-0.089426	0.279442
O	1.362478	-0.053035	0.341577
C	3.348053	1.124319	0.061921
C	4.704939	1.323761	-0.017654
N	5.682365	0.416298	0.301621
N	5.220872	2.528003	-0.442155
H	3.820637	-1.495534	1.38934
H	3.988823	-1.62995	-0.390868
H	2.50798	-2.215974	0.427572
H	2.71515	2.006407	-0.062134
H	5.385151	-0.518018	0.538744
H	6.526457	0.45786	-0.257
H	4.540346	3.2591	-0.601838
H	6.052158	2.848191	0.04264
