11
-1271.54
O          1.17546        0.02328        0.52266
C          2.33251       -0.02373        0.15276
C          3.15438       -1.25686       -0.08396
C          4.45785       -0.64033       -0.51724
C          4.50476        0.69795       -0.56139
C          3.18770        1.19220       -0.14799
O          2.85121        2.35218       -0.06394
H          2.71826       -1.86209       -0.88117
H          3.27277       -1.82318        0.84199
H          5.30748       -1.26155       -0.77717
H          5.32252        1.34000       -0.83867
