15
-1538.75
C          1.81018        2.96789        0.69077
O          3.21080        2.74096        0.53540
C          3.53478        1.45389        0.25003
O          2.73832        0.53338        0.12803
C          5.00964        1.27784        0.10625
C          5.46144       -0.13485       -0.11446
C          5.87202        2.30707        0.16487
H          1.66898        4.00368        1.01019
H          1.39111        2.31092        1.45892
H          1.29670        2.82549       -0.26448
H          5.16052       -0.76907        0.72585
H          6.55020       -0.20590       -0.20825
H          5.02354       -0.53983       -1.03264
H          5.54570        3.33116        0.32073
H          6.94065        2.15198        0.05502
