20

C	2.78928	-0.972132	-1.028022
C	2.47666	0.0582	0.048117
C	3.057387	1.467347	-0.149119
C	2.511908	2.137366	-1.406512
N	2.741856	2.340322	0.987737
C	4.597922	1.443902	-0.203314
O	5.108989	2.738023	-0.166438
H	2.322371	-1.938945	-0.787191
H	3.870728	-1.150785	-1.12744
H	2.409707	-0.665465	-2.014394
H	2.839637	-0.319396	1.021907
H	1.381857	0.16098	0.15481
H	2.760121	1.557602	-2.306422
H	2.956615	3.135792	-1.517462
H	1.415073	2.238476	-1.35797
H	2.851572	1.8343	1.866154
H	1.775261	2.656784	0.950003
H	4.945927	0.952783	-1.126565
H	4.965848	0.825501	0.647987
H	4.500511	3.197456	0.441052
