19
-1799.27
C          1.01626       -0.23547        0.14433
C          2.53255       -0.34150        0.24625
O          3.00056       -1.29059       -0.71240
C          3.20993        1.01447        0.01137
C          4.74560        0.98109        0.06667
C          5.29952        0.51522        1.40529
O          5.26212        0.14706       -0.96560
H          0.61553        0.45116        0.89661
H          0.55492       -1.21882        0.28718
H          0.70998        0.11467       -0.84771
H          2.78880       -0.72645        1.23759
H          2.64203       -1.03207       -1.58251
H          2.83619        1.74271        0.74106
H          2.92617        1.37162       -0.98784
H          5.11706        1.99278       -0.12920
H          5.08213       -0.54244        1.58801
H          4.89859        1.10994        2.23208
H          6.39176        0.60659        1.41144
H          4.80754       -0.71773       -0.88195
