11

N	2.649672	-0.860768	1.009867
C	2.139082	0.084222	0.190701
O	0.983424	0.12177	-0.169481
C	3.124616	1.160999	-0.287205
C	4.500281	1.050677	0.168835
C	5.638616	0.935989	0.568879
H	3.621817	-0.852246	1.287742
H	2.032192	-1.587351	1.345661
H	2.692378	2.127196	0.02032
H	3.077994	1.148318	-1.388369
H	6.652687	0.848215	0.91355
