14

C	0.944844	0.043653	0.042482
N	2.382298	0.015963	0.134276
C	3.116583	1.007254	0.926425
C	4.259841	0.068444	1.337417
S	3.173981	-1.302842	0.865695
O	2.415514	-1.790984	2.011692
O	3.714528	-2.244168	-0.093652
H	0.602732	-0.81881	-0.547606
H	0.634413	0.954779	-0.490901
H	0.451883	0.015308	1.032577
H	2.546818	1.362408	1.805297
H	3.431068	1.873811	0.324797
H	5.1382	0.0967	0.680645
H	4.539949	0.045022	2.397006
