16
-1515.25
O          1.39291       -0.79268        0.70194
C          1.49348        0.51490        0.13586
C          2.94032        0.94614        0.13020
C          3.64442        0.83863        1.46420
O          3.92772       -0.52705        1.74920
C          3.75495        0.71522       -1.12541
N          3.30258        2.05688       -0.77553
H          0.45327       -1.04098        0.64127
H          0.89458        1.20194        0.74302
H          1.07263        0.48296       -0.87508
H          3.02248        1.24453        2.26999
H          4.59649        1.38070        1.47079
H          3.09393       -1.00863        1.55930
H          3.27679        0.25730       -1.98241
H          4.81600        0.51379       -1.03167
H          4.07826        2.60649       -0.39961
