17
-1617.81
C          2.35846       -0.49632       -1.44394
C          2.47561        0.05658       -0.03226
C          3.25916        1.36027       -0.03911
C          2.55260        2.62300       -0.58692
C          3.19926        3.33254        0.61421
N          3.24780        2.01976        1.29484
H          1.81286       -1.44491       -1.43727
H          3.34745       -0.67280       -1.87950
H          1.82390        0.20046       -2.09771
H          2.98564       -0.68209        0.59718
H          1.47116        0.19962        0.38397
H          4.27739        1.23478       -0.43417
H          1.45703        2.59395       -0.54925
H          2.87175        2.96447       -1.57479
H          4.18751        3.75823        0.40532
H          2.58094        4.08538        1.10969
H          4.08200        1.86055        1.85699
