17
-1634.58
C          1.49681        1.32938       -0.73326
O          2.86829        0.97153       -0.62690
C          3.58313        1.88182        0.21386
C          5.03214        1.42574        0.29829
C          5.87347        1.53061       -0.98018
C          6.82139        2.36508       -0.12649
O          5.86337        2.42409        0.95793
H          1.00614        0.61698       -1.40175
H          1.39313        2.33346       -1.15610
H          1.01212        1.28050        0.24651
H          3.13387        1.88444        1.21350
H          3.51709        2.89253       -0.20566
H          5.13333        0.45947        0.80925
H          5.41045        2.07855       -1.80578
H          6.28502        0.58627       -1.34482
H          7.74143        1.86186        0.18486
H          7.05201        3.35840       -0.51975
