16
-1574.95
C          1.01772       -0.05306        0.18688
N          2.46429        0.01088       -0.00201
C          3.05581        1.05285        0.87610
C          4.18657        0.05817        1.19200
C          3.14969       -1.03231        0.83161
C          3.64384       -2.24533       -0.00209
O          4.25424       -3.22393        0.43308
H          0.61601       -0.93892       -0.31657
H          0.54462        0.82300       -0.26952
H          0.71023       -0.09373        1.23867
H          2.46327        1.33468        1.75592
H          3.36920        1.96309        0.35679
H          5.04248        0.11920        0.50928
H          4.54746        0.05789        2.22353
H          2.57845       -1.36264        1.71176
H          3.39965       -2.20146       -1.07732
