19
-1905.45
C          2.49781       -0.56020        1.37157
C          2.74893        0.03697       -0.00714
C          3.19699        1.48052        0.03912
C          2.30517        2.48723        0.04078
C          4.63101        1.75249        0.01658
C          5.44952        1.23240        1.16446
C          5.19154        2.45191       -0.98423
H          2.10261       -1.57643        1.27233
H          1.76846        0.03078        1.93524
H          3.41671       -0.61893        1.96164
H          1.82065       -0.03621       -0.58934
H          3.48342       -0.57349       -0.54712
H          1.23725        2.29497        0.03392
H          2.61800        3.52670        0.05746
H          4.99589        1.51094        2.12200
H          6.46585        1.64186        1.15716
H          5.53473        0.14203        1.11865
H          4.60348        2.82630       -1.81672
H          6.25642        2.66006       -1.00289
