17

C	1.702186	-0.962449	-1.039094
C	3.173464	-0.964232	-0.797225
C	3.963182	-2.045454	-0.808536
O	3.609277	0.301236	-0.533318
C	4.957409	0.583305	-0.571068
C	5.527936	0.672304	-1.948962
C	5.603119	0.831675	0.569064
H	1.460583	-0.337789	-1.913633
H	1.181684	-0.519577	-0.175165
H	1.321738	-1.977666	-1.204235
H	3.536221	-3.024037	-1.026432
H	5.029191	-1.981152	-0.582236
H	5.0042	1.456988	-2.518264
H	5.385075	-0.274913	-2.492107
H	6.599595	0.907356	-1.921811
H	5.083006	0.756007	1.525628
H	6.651282	1.132618	0.560294
