12

O	1.287987	0.423316	-0.991008
C	2.05568	0.278042	-0.071727
C	3.26766	1.125988	0.088615
N	3.689096	1.913157	-1.048076
C	3.018522	2.614829	0.022679
C	3.774547	3.526665	0.84331
C	4.38188	4.30404	1.545464
H	1.891974	-0.502572	0.710535
H	4.055571	0.759802	0.755354
H	3.016576	1.750198	-1.803548
H	1.968702	2.896863	-0.136577
H	4.926145	4.992622	2.165719
