13

N	1.128796	-0.069782	-0.407027
N	2.338545	0.0776	0.217939
C	2.874082	1.22777	0.248782
O	4.093204	1.383063	0.848409
C	4.499907	2.728801	0.757443
C	3.400671	3.426206	0.022035
C	2.447089	2.532303	-0.267285
H	0.716033	-0.947315	-0.109393
H	0.461972	0.681572	-0.219419
H	5.467373	2.79667	0.223391
H	4.660071	3.143246	1.77162
H	3.41598	4.486402	-0.235067
H	1.524888	2.707494	-0.819509
