18

C	0.822483	-0.279919	0.387548
C	2.181575	-0.412297	-0.272853
N	3.203127	0.275883	0.487446
C	4.514332	0.241107	-0.07645
C	5.640012	0.887999	0.738935
O	6.469658	-0.260707	0.597655
C	5.416243	-1.017116	0.010131
H	0.03988	-0.767845	-0.211833
H	0.559514	0.780374	0.517544
H	0.817722	-0.752053	1.383566
H	2.149788	0.040005	-1.279665
H	2.411325	-1.489876	-0.434591
H	3.222712	-0.069668	1.445826
H	4.466272	0.631705	-1.1062
H	5.354166	1.083046	1.791456
H	6.101164	1.802153	0.328434
H	5.71974	-1.499817	-0.935109
H	5.017276	-1.794085	0.693691
