19
-1836.81
C          3.08689       -0.90028        0.56716
C          2.30908        0.40078        0.44398
C          3.19284        1.56379        0.07151
C          3.37266        1.90200       -1.38771
C          2.58816        2.82226       -0.49811
O          4.39368        1.71229        0.86220
C          4.19144        2.32798        2.12797
H          2.40621       -1.73297        0.76808
H          3.80998       -0.85192        1.39006
H          3.63958       -1.12037       -0.35273
H          1.80492        0.61351        1.39172
H          1.52101        0.26870       -0.30563
H          2.83115        1.32527       -2.12741
H          4.35496        2.22549       -1.71369
H          3.03670        3.77524       -0.24652
H          1.51316        2.86224       -0.63077
H          3.37844        1.84612        2.67772
H          3.98102        3.39229        2.00008
H          5.11211        2.22253        2.70891
