15
-1494.09
C          0.99930       -0.03241        0.15051
C          2.52000        0.00000        0.00000
O          3.09830       -0.69636        1.11403
C          2.94655       -0.75464       -1.27866
O          4.36507       -0.95916       -1.31038
C          3.00202        1.36117        0.00000
C          3.39930        2.48307        0.00000
H          0.49720        0.46518       -0.68667
H          0.68379        0.46191        1.07745
H          0.63427       -1.06417        0.21155
H          2.93425       -0.14625        1.90037
H          2.65516       -0.21959       -2.18893
H          2.49292       -1.75173       -1.30373
H          4.60698       -1.16837       -0.38585
H          3.76537        3.48413       -0.00761
