16

C	1.77222	-0.696449	-1.016334
C	2.869311	-0.267142	-0.046357
C	3.003403	1.218935	0.0502
C	4.097134	1.917284	-0.262682
C	4.199583	3.414018	-0.152764
C	4.514117	4.056241	-1.428367
N	4.771241	4.552884	-2.441511
H	1.67439	-1.792017	-1.04706
H	1.987577	-0.344488	-2.036907
H	0.794032	-0.282722	-0.723316
H	3.834803	-0.708051	-0.343967
H	2.641543	-0.670228	0.957196
H	2.110783	1.76222	0.392095
H	4.993295	1.397019	-0.621579
H	4.991161	3.69909	0.563168
H	3.258877	3.842516	0.228756
