15

O	0.176463	-0.751496	-0.944032
N	0.821134	-0.842026	0.282428
C	2.059912	-1.592951	0.171292
C	1.821242	-3.032321	-0.16416
C	2.274048	-4.063309	0.547439
C	0.799992	0.344112	1.007934
N	0.107055	1.381866	0.796156
H	-0.630054	-1.271796	-0.833308
H	2.584864	-1.504529	1.134259
H	2.704212	-1.131186	-0.604588
H	1.250583	-3.211593	-1.082813
H	2.851639	-3.916073	1.466475
H	2.088999	-5.095897	0.239434
H	1.450832	0.282373	1.895588
H	-0.412869	1.267626	-0.080771
