13
-1177.16
C          0.99515        0.00856        0.00417
C          2.51984        0.00621        0.00297
C          3.06609       -0.73363       -1.21401
N          3.00808        1.38527        0.01919
H          0.60352        0.52844        0.88615
H          0.60774       -1.01590        0.02419
H          0.59014        0.50289       -0.88675
H          2.87191       -0.49429        0.91114
H          2.74104       -0.26590       -2.15077
H          2.72049       -1.77312       -1.22061
H          4.16193       -0.74846       -1.20644
H          2.70035        1.87102       -0.82350
H          4.02757        1.38771       -0.01227
