15
-1422.13
C          0.92787        0.04390       -0.01460
C          2.44202        0.00251        0.01330
C          3.13886        1.01398        0.96374
C          4.29115        0.02725        1.25514
S          3.20364       -1.32918        0.92104
O          2.44058       -1.70102        2.09467
O          3.81284       -2.29609        0.03446
H          0.53005       -0.79945       -0.58793
H          0.57828        0.96656       -0.48873
H          0.50050        0.00113        0.99233
H          2.84797        0.03985       -1.00667
H          2.55287        1.26732        1.85661
H          3.44716        1.95186        0.49155
H          5.12370        0.07484        0.54618
H          4.67694        0.04845        2.27713
