19

C	0.921927	-0.311005	0.580658
C	1.831865	-0.63841	-0.595344
C	1.134216	-1.571755	-1.583907
O	0.683995	-2.765728	-0.998375
C	2.335581	0.631828	-1.293187
C	3.394667	0.389785	-2.323018
C	3.328683	0.743981	-3.6075
H	1.454235	0.25461	1.361089
H	0.522302	-1.23389	1.024076
H	0.063833	0.297355	0.249428
H	2.7189	-1.180637	-0.207803
H	1.800856	-1.762002	-2.447675
H	0.238827	-1.065891	-1.985317
H	1.455486	-3.256569	-0.696848
H	2.742693	1.305874	-0.517387
H	1.480932	1.165319	-1.745823
H	4.29626	-0.124888	-1.96288
H	2.448825	1.255343	-4.012823
H	4.148698	0.53958	-4.301325
