17
-1606.43
C          5.67491        1.01187        1.85691
O          4.54044        1.85659        2.02142
C          3.85584        2.09068        0.79144
C          2.47741        2.64313        1.13059
C          4.59887        3.12158       -0.07986
N          4.47397        3.09712       -1.43620
N          5.33287        4.04601        0.45648
H          6.14127        0.87328        2.83608
H          6.40969        1.46440        1.18498
H          5.36997        0.03224        1.47648
H          3.74073        1.15482        0.23181
H          2.55673        3.56056        1.72503
H          1.91475        1.92241        1.73343
H          1.90247        2.87013        0.22738
H          3.59610        2.77068       -1.81971
H          4.81335        3.95568       -1.85987
H          5.31637        3.90231        1.47936
