15
-1643.64
C          0.98098       -1.36740        0.09571
C         -0.50529       -1.51193        0.01596
C         -1.48681       -0.60543       -0.03217
C         -1.39331        0.82775        0.00156
C         -0.30400        1.60024        0.00156
C          1.07920        1.21358       -0.03262
C          1.60993       -0.01271        0.01555
H          1.40564       -1.96696       -0.71984
H          1.31473       -1.83805        1.02885
H         -0.82301       -2.55500       -0.00539
H         -2.50930       -0.97913       -0.08900
H         -2.35916        1.33203        0.02732
H         -0.46054        2.67876        0.02712
H          1.77057        2.05506       -0.08983
H          2.69954       -0.05868       -0.00637
