12
-1246.69
C          0.93899       -0.02562        0.00516
C          2.42380        0.04199        0.00228
C          3.17073        1.20405        0.00271
O          2.75042        2.46365        0.00549
S          4.83280        0.79896       -0.00103
N          4.61374       -0.84328       -0.00300
C          3.30594       -1.08586       -0.00088
H          0.58809       -1.06243       -0.00672
H          0.53068        0.47955       -0.87614
H          0.53552        0.45786        0.90072
H          3.55776        3.00749        0.00508
H          3.00078       -2.12510       -0.00174
