18

C	0.832508	-0.573987	-0.030126
C	2.293598	-0.177125	-0.233966
N	2.954569	-0.88109	-1.322883
C	2.430743	1.329274	-0.444929
C	3.857632	1.795767	-0.509399
C	4.565073	1.973218	-1.771965
O	4.08271	3.084825	-1.045068
H	0.382444	-0.063718	0.836385
H	0.740368	-1.659611	0.133096
H	0.233828	-0.314986	-0.920113
H	2.847579	-0.433941	0.689323
H	2.446134	-0.720087	-2.192874
H	2.927157	-1.88632	-1.162083
H	1.91768	1.861435	0.373935
H	1.916121	1.627156	-1.3763
H	4.462019	1.563427	0.381384
H	4.041489	1.748174	-2.710305
H	5.656279	1.857829	-1.811002
