13
-1203.4
C          1.12237        0.16608        0.01651
S          2.86112       -0.13961       -0.13900
O          3.26121       -0.95664        0.98960
O          3.11079       -0.54948       -1.50597
C          3.57574        1.51747        0.05111
C          4.28642        1.76389        1.35091
O          5.00564        1.44028        0.15174
H          0.81398        0.86000       -0.76755
H          0.92515        0.58608        1.00434
H          0.59702       -0.78420       -0.09777
H          3.15517        2.33097       -0.51740
H          4.27553        1.01866        2.13647
H          4.35968        2.78186        1.71165
