13

C	0.961366	-0.076386	-0.002371
C	2.478911	-0.02366	0.013056
C	3.002544	1.414679	0.044507
O	2.537412	2.148323	1.142459
C	4.479129	1.431122	-0.02594
N	5.635979	1.42725	-0.053826
H	0.600699	-1.1139	0.038022
H	0.556496	0.385839	-0.916606
H	0.543905	0.469512	0.855721
H	2.9029	-0.534568	-0.867187
H	2.878995	-0.555858	0.894811
H	2.634389	1.948404	-0.848683
H	2.851157	1.720744	1.948745
