19
-1841.25
C          1.44480        3.10344        0.96649
O          2.82475        2.77042        0.90028
C          3.08322        1.79464       -0.11316
C          4.57924        1.47866       -0.15283
C          5.39132        2.63927       -0.66569
C          6.17293        2.59367       -1.75533
C          6.97984        3.75205       -2.24740
H          1.31225        3.86905        1.73568
H          0.85324        2.22540        1.24111
H          1.09981        3.50689        0.00926
H          2.73951        2.16722       -1.08584
H          2.52929        0.88020        0.12932
H          4.74061        0.59477       -0.78098
H          4.93299        1.23804        0.85609
H          5.32180        3.55772       -0.08407
H          6.24703        1.67574       -2.33304
H          6.86081        4.63738       -1.61533
H          6.67303        4.01433       -3.26393
H          8.04046        3.48537       -2.26499
