13
-1280.19
C          1.00045        0.00909       -0.02585
C          2.52168       -0.04050       -0.05218
C          3.06905       -1.24056       -0.78630
C          3.34030       -0.59924       -2.08993
N          3.32369        0.68889       -2.09402
O          3.01356        1.09901       -0.77274
H          0.65995        0.92423        0.47124
H          0.58593       -0.85239        0.50706
H          0.58240        0.02964       -1.03872
H          2.90470       -0.00105        0.97256
H          2.37430       -2.07809       -0.87471
H          4.01899       -1.59070       -0.37215
H          3.58413       -1.20262       -2.97465
