14
-1348.73
O          0.31863        0.08324        0.37108
C          1.63605       -0.37090        0.08461
C          2.58419        0.81299       -0.06718
O          3.89223        0.31512       -0.35313
C          4.88692        1.23458       -0.52200
C          4.82213        2.56890       -0.45875
H         -0.23926       -0.70915        0.45808
H          1.61623       -0.96492       -0.83572
H          1.97120       -1.02702        0.89536
H          2.58785        1.39531        0.86226
H          2.23085        1.45800       -0.88114
H          5.81781        0.71819       -0.73158
H          3.90708        3.10996       -0.25171
H          5.71742        3.16257       -0.61938
