16
-1584.2
C          2.37766       -0.43966       -1.42890
C          2.39555        0.18474       -0.03910
N          3.30802        1.33297        0.00697
C          2.69671        2.52860       -0.61152
C          2.95255        3.24522        0.71957
O          2.84080        4.38768        1.11319
C          3.33571        1.90948        1.36749
H          1.73533       -1.32632       -1.43298
H          3.38214       -0.75191       -1.73416
H          1.99129        0.25697       -2.17988
H          2.74858       -0.57810        0.66604
H          1.37369        0.44995        0.26191
H          1.63392        2.47380       -0.86808
H          3.26269        2.93864       -1.45154
H          4.32347        1.91027        1.83482
H          2.58557        1.54786        2.07820
