17
-1693.64
C          1.88248       -0.18967        1.33773
C          2.30337        0.27497       -0.04967
C          2.99382        1.62244       -0.02087
C          2.28917        2.74975       -0.22536
C          4.45694        1.61039        0.17021
C          5.01140        2.02360        1.51278
O          5.12610        0.67876        1.03701
H          1.38769       -1.16399        1.27356
H          1.17942        0.51544        1.79377
H          2.74197       -0.29358        2.00708
H          1.41550        0.31894       -0.69322
H          2.96644       -0.47132       -0.50421
H          1.21546        2.72838       -0.38499
H          2.77237        3.72187       -0.23317
H          5.01185        1.91355       -0.71277
H          4.33063        2.20064        2.33562
H          5.90912        2.62703        1.53062
