15

C	0.875132	0.030228	-0.257522
C	2.355602	-0.000209	0.040902
C	2.694378	-0.02833	1.512765
C	3.250118	-0.753945	-0.903759
C	3.276839	0.749845	-0.88072
H	0.681573	0.049499	-1.34108
H	0.401069	0.922356	0.184425
H	0.370098	-0.857389	0.158487
H	3.782845	-0.04885	1.676449
H	2.264068	-0.918911	2.000229
H	2.293383	0.860867	2.027061
H	2.792321	-1.248082	-1.766186
H	4.107672	-1.291073	-0.487027
H	4.152577	1.243028	-0.447867
H	2.837695	1.286286	-1.727486
