17
-1721.09
C          2.30116       -0.47950       -1.56835
C          2.44773        0.06155       -0.15244
C          3.39034        1.26467       -0.07197
C          3.58208        1.74836        1.37483
O          3.55948        3.19241        1.38041
C          3.02851        3.51294        0.15140
C          2.88720        2.51123       -0.70821
H          1.66597       -1.37137       -1.56572
H          3.27429       -0.75891       -1.98435
H          1.83959        0.25660       -2.23325
H          2.83380       -0.74044        0.48845
H          1.45445        0.32460        0.23117
H          4.36202        1.00496       -0.50868
H          4.54096        1.41078        1.78358
H          2.78605        1.39862        2.04399
H          2.81942        4.55942        0.00521
H          2.52819        2.60580       -1.72135
