17
-1646.55
O          1.18479        0.28633       -1.45253
C          1.68789        0.13025       -0.12914
C          2.89794        1.01008        0.10899
C          3.63085        0.68525        1.38630
O          2.84004        1.08117        2.49759
C          3.71999        1.50530       -1.06905
C          2.83431        2.46430       -0.32535
H          0.44113       -0.33302       -1.53968
H          1.95075       -0.92388        0.00883
H          0.88905        0.39142        0.57307
H          4.59782        1.19555        1.45191
H          3.81891       -0.39082        1.46201
H          2.72515        2.04402        2.42378
H          3.42317        1.22218       -2.07345
H          4.79240        1.61316       -0.95392
H          3.31277        3.21943        0.28720
H          1.93780        2.81306       -0.82783
