17

C	0.736213	2.017053	0.196312
C	2.162222	2.133496	0.678237
O	3.006095	1.550559	-0.279409
C	4.370233	1.602147	0.046873
C	4.946616	2.981014	-0.036995
N	5.542112	3.502534	0.963301
N	6.120133	4.702964	0.84688
H	0.039431	2.456434	0.925456
H	0.466618	0.961392	0.044642
H	0.612775	2.539107	-0.764097
H	2.285803	1.624444	1.657296
H	2.429462	3.196493	0.845983
H	4.87307	0.940206	-0.67839
H	4.569992	1.208941	1.063424
H	4.832919	3.520994	-0.998532
H	6.245404	5.167316	1.737179
H	5.790681	5.317067	0.099381
