15
-1536.8
C          0.76575        0.07429        0.32673
C          2.06310       -0.68163        0.27495
C          1.94382       -2.17489        0.38685
C          3.23379       -0.03935        0.13760
O          4.45966       -0.70579        0.08958
C          5.56710        0.08442       -0.03753
O          5.62274        1.30214       -0.11804
H          0.91300        1.15471        0.22428
H          0.26035       -0.10464        1.28136
H          0.10450       -0.24954       -0.48365
H          1.31020       -2.56457       -0.41629
H          1.49226       -2.44637        1.34703
H          2.91023       -2.68282        0.31960
H          3.30743        1.03929        0.05725
H          6.45183       -0.57159       -0.05797
