10

C	0.858553	0.140591	0.002207
C	2.071167	0.121731	-0.000985
C	3.48918	0.059844	-0.004555
N	4.296122	1.087544	-0.009715
C	5.592099	0.686442	-0.011566
C	5.802026	-0.669555	-0.007449
S	4.299801	-1.489112	-0.001439
H	-0.216087	0.168388	0.00505
H	6.388575	1.433063	-0.015871
H	6.748873	-1.207826	-0.007815
