19
-1906.7
C          1.05623       -0.50688        0.13422
C          2.46602       -0.00924       -0.20184
C          3.09833       -0.92633       -1.26087
C          2.43850        1.47237       -0.58101
C          2.32821        1.89183       -1.85611
C          2.55645        2.49111        0.46179
C          2.60272        2.29754        1.78600
H          0.60286        0.08302        0.93738
H          1.08398       -1.55022        0.46620
H          0.39547       -0.45031       -0.73789
H          3.09698       -0.13552        0.68704
H          2.47933       -1.00558       -2.16069
H          3.22007       -1.93898       -0.86074
H          4.09026       -0.56500       -1.55203
H          2.22948        1.20004       -2.68501
H          2.31555        2.94491       -2.11896
H          2.60642        3.52433        0.11726
H          2.54831        1.31955        2.24859
H          2.69111        3.14720        2.45588
