16
-1498.19
C          2.70921       -0.84789       -0.71869
O          2.48134        0.04095        0.36945
C          2.95464        1.35940        0.10718
C          2.40918        2.27269        1.19520
C          4.46992        1.41401        0.14658
N          5.14967        1.81629       -0.87914
O          6.51283        1.76027       -0.56720
H          2.24179       -1.80701       -0.47885
H          3.78014       -1.01457       -0.86506
H          2.25667       -0.46157       -1.63760
H          2.59101        1.70475       -0.86826
H          2.72784        1.93673        2.18880
H          1.31395        2.26021        1.19281
H          2.74967        3.30429        1.05842
H          4.95879        1.09167        1.08289
H          6.93111        2.07632       -1.38938
