15
-1536.26
C          0.86708       -0.31020        0.12508
C          2.29874        0.04202       -0.25120
C          2.76372       -0.86087       -1.36252
O          3.65666       -1.69131       -1.21300
C          2.37713        1.49601       -0.65564
C          2.73305        2.48779        0.42073
O          2.12830        1.86159       -1.80464
H          0.51288        0.31091        0.95500
H          0.78806       -1.36074        0.42621
H          0.18323       -0.15589       -0.71815
H          2.96210       -0.11983        0.60619
H          2.23520       -0.76510       -2.32736
H          1.99575        2.43988        1.22571
H          2.73560        3.49891        0.00379
H          3.73040        2.26500        0.80837
