12
-1234.56
O          0.84547        1.25855        0.27868
N          2.14283        1.78220        0.22803
C          2.98359        0.80392        0.11343
C          4.44814        1.00412        0.04411
C          5.24184       -0.07769        0.02549
C          5.04537        2.36191        0.00455
O          6.25245        2.56644       -0.07263
H          0.29799        2.05654        0.40664
H          2.63250       -0.24406        0.06821
H          4.85062       -1.08813        0.06064
H          6.32277        0.02515       -0.01670
H          4.32509        3.19505        0.04501
