17
-1702.77
C          1.86857       -3.07922        0.78837
C          1.31043       -1.69053        0.90015
C          0.32018       -1.39343        1.75966
C          1.93426       -0.65228        0.00184
O          1.57342       -0.95369       -1.34689
C          2.03844       -0.12334       -2.32658
C          2.84263        0.94088       -2.22103
H          1.76778       -3.45750       -0.23386
H          1.35583       -3.78383        1.45382
H          2.93084       -3.08343        1.05784
H         -0.12106       -2.14906        2.40052
H         -0.08580       -0.39012        1.83280
H          3.02461       -0.68168        0.11920
H          1.57732        0.35100        0.26359
H          1.64907       -0.45195       -3.28471
H          3.24925        1.28758       -1.27865
H          3.11857        1.49873       -3.11039
