15
-1486.5
O          0.99692        0.01842        0.11188
C          2.41441       -0.02564        0.00175
C          3.06665        1.14608        0.76352
N          4.32575        0.58387        1.19758
C          4.23163       -0.76689        1.31897
N          5.06742       -1.49783        1.96324
C          2.98272       -1.29067        0.66028
H          0.64329       -0.75188       -0.36641
H          2.69123        0.01271       -1.05866
H          2.46008        1.45315        1.62277
H          3.21486        2.01396        0.11457
H          4.86849        1.05545        1.91212
H          4.77928       -2.48128        1.93607
H          3.22770       -2.06088       -0.07587
H          2.31126       -1.71075        1.41533
