12

O	0.959702	-0.142161	0.008315
C	2.282488	-0.023601	-0.00175
C	2.918034	1.175548	-0.003438
C	2.358799	2.512603	0.004722
C	3.436513	3.346706	-0.001406
C	4.608146	2.484906	-0.013055
N	4.312596	1.216731	-0.014412
H	0.707246	-1.070946	0.007687
H	2.891763	-0.935586	-0.009127
H	1.300105	2.767166	0.013926
H	3.434959	4.437243	0.001768
H	5.64907	2.82357	-0.020381
