20

C	1.856141	1.183685	-1.743022
O	3.143392	1.438451	-1.281829
C	3.360751	1.010516	0.036175
C	4.768785	1.372164	0.458925
C	5.099527	2.85143	0.27759
C	4.112513	3.803859	0.939135
N	3.914881	3.478836	2.340183
H	1.779413	1.562157	-2.772514
H	1.084255	1.688841	-1.127037
H	1.621148	0.099598	-1.75158
H	3.208326	-0.086744	0.118254
H	2.630999	1.48458	0.725161
H	5.488149	0.767872	-0.117701
H	4.876983	1.088681	1.517531
H	5.136263	3.086572	-0.797782
H	6.114226	3.041315	0.672146
H	3.140454	3.716836	0.424372
H	4.456618	4.844778	0.75609
H	4.781561	3.612803	2.859427
H	3.228464	4.099409	2.762965
