15
-1533.55
C          0.99309       -0.01606       -0.17410
N          2.42747        0.02887        0.06941
C          3.09935        1.22878        0.15895
C          4.40829        1.26217        0.42113
C          5.18448       -0.00516        0.63071
N          4.40449       -1.25230        0.52522
C          3.14945       -1.13028        0.26730
H          0.63002       -1.03980       -0.31351
H          0.73997        0.54946       -1.07738
H          0.45206        0.41993        0.67260
H          2.50945        2.12663        0.00643
H          4.93783        2.20539        0.49123
H          5.99706       -0.04615       -0.10323
H          5.64490        0.02584        1.62458
H          2.53839       -2.04471        0.18472
