15
-1498.67
C          0.96837        0.08535       -0.14547
C          2.44254       -0.11931        0.01604
C          3.08238       -1.30009       -0.01281
N          2.56651       -2.55671       -0.21946
C          3.21725        1.12933        0.26654
N          4.40294        1.23363       -0.39244
O          2.78099        2.04486        0.95121
H          0.77105        0.84348       -0.91125
H          0.52313        0.42210        0.79655
H          0.44742       -0.82556       -0.45361
H          4.15921       -1.34398        0.15137
H          1.56212       -2.63100       -0.07549
H          3.07698       -3.29612        0.26047
H          4.68740        0.57688       -1.10488
H          4.89647        2.11282       -0.31771
