13
-1299.28
C          1.12040       -0.07941        0.60029
C          2.52000        0.00000        0.00000
O          2.47557       -0.49020       -1.35025
N          2.61650       -1.88953       -1.34974
C          2.62958       -2.30263       -2.57156
C          3.00202        1.36117        0.00000
N          3.38623        2.44616        0.00000
H          1.10308        0.29958        1.62736
H          0.76006       -1.11407        0.60795
H          0.40284        0.49923        0.00773
H          3.20643       -0.62151        0.58929
H          2.73684       -3.37656       -2.78780
H          2.53870       -1.62361       -3.43675
