18

C	0.929786	-0.560065	0.612346
C	2.303357	-0.406195	-0.032388
C	2.750578	-1.712012	-0.68239
C	2.29005	0.763466	-1.019157
C	3.633227	1.074471	-1.688129
C	4.700365	1.355609	-0.732365
N	5.531512	1.57366	0.043319
H	0.608958	0.368687	1.109645
H	0.932426	-1.36124	1.367592
H	0.166784	-0.81553	-0.142047
H	3.027434	-0.158024	0.765448
H	2.093393	-1.979342	-1.527447
H	2.713714	-2.541296	0.040592
H	3.783621	-1.661474	-1.05885
H	1.936061	1.669626	-0.499919
H	1.558701	0.559704	-1.820426
H	3.534232	1.947898	-2.352855
H	3.961862	0.236998	-2.324749
