15
-1547.75
C          0.78122        0.01853        0.09463
C          2.26552        0.00348        0.26625
C          3.08999        0.93835       -0.23903
C          4.58847        0.99659       -0.10137
O          5.08291       -0.15761        0.56273
C          5.20848        1.09104       -1.43081
C          5.72199        1.16505       -2.51534
H          0.45590       -0.89564       -0.41117
H          0.44060        0.87491       -0.49577
H          0.29366        0.06290        1.07324
H          2.66838       -0.81933        0.85313
H          2.65473        1.76471       -0.79953
H          4.85686        1.86965        0.50233
H          4.94152       -0.89681       -0.05204
H          6.18014        1.23038       -3.47488
