23
-2191.74
C          1.61753        0.64395        1.50743
C          2.97644        1.32792        1.44633
C          3.71713        0.97357        0.15221
C          5.12092        1.61347       -0.01812
C          6.07702        1.16300        1.09890
C          5.69805        1.15095       -1.37075
C          5.03646        3.14886       -0.02388
H          1.10211        0.90828        2.43609
H          1.72471       -0.44492        1.47662
H          0.98527        0.95187        0.66866
H          3.56026        1.01934        2.31962
H          2.82385        2.40985        1.51677
H          3.08756        1.26607       -0.69897
H          3.81549       -0.11895        0.09602
H          5.76657        1.54338        2.07728
H          7.09387        1.53007        0.91816
H          6.12473        0.07027        1.16089
H          5.05572        1.46228       -2.20218
H          5.78997        0.05970       -1.40936
H          6.69385        1.57430       -1.54416
H          4.32377        3.50218       -0.77714
H          6.01075        3.59568       -0.25296
H          4.72277        3.54196        0.94845
