15
-1478.31
C          0.88293       -0.09172        0.04822
N          2.32851        0.06569        0.03945
C          2.82374        1.25409       -0.00585
N          2.10879        2.42535       -0.04413
C          4.34085        1.33372       -0.07206
C          4.97993        2.50713        0.61407
O          4.36307        3.43900        1.12612
H          0.63887       -1.15590       -0.02899
H          0.41229        0.41201       -0.80320
H          0.45049        0.27825        0.98343
H          1.16781        2.37344        0.32443
H          2.60803        3.23390        0.33893
H          4.63231        1.36250       -1.12734
H          4.76561        0.42699        0.37334
H          6.08387        2.50759        0.60570
