17

C	0.854141	-0.043477	-0.137665
C	2.182108	0.002043	0.006369
C	2.961544	1.289177	-0.165364
C	4.433839	1.18911	0.249076
C	5.061203	-0.067408	-0.280803
C	4.368529	-1.210123	-0.259457
C	2.986066	-1.240375	0.327607
H	0.272522	0.858797	-0.350098
H	0.301159	-0.983092	-0.048929
H	2.464762	2.104856	0.38386
H	2.925196	1.568959	-1.232116
H	4.50752	1.198415	1.353648
H	4.980184	2.080078	-0.095609
H	6.081366	-0.03805	-0.674462
H	4.805057	-2.140694	-0.634478
H	2.433079	-2.14285	0.028129
H	3.084565	-1.303338	1.430932
