15

C	0.95485	-0.014538	-0.038864
C	2.441018	0.052241	-0.014726
C	3.296686	1.131479	0.078446
C	4.631325	0.634758	0.078396
C	4.55435	-0.740577	-0.024435
N	5.518163	-1.757904	-0.111507
N	3.225063	-1.070727	-0.082544
H	0.53509	0.9996	-0.006741
H	0.54784	-0.569436	0.824264
H	0.572936	-0.501915	-0.95252
H	2.985394	2.172485	0.15087
H	5.550452	1.212954	0.155369
H	5.787544	-2.11226	0.80504
H	6.361059	-1.422988	-0.567639
H	2.898921	-2.016911	-0.223879
