19
-1739.3
N          1.14932        0.08393       -0.93405
C          2.58785        0.09933       -0.67153
C          3.04212        1.51312       -0.31167
C          4.52642        1.55169        0.05104
O          5.31014        1.15749       -1.08059
C          4.96555        2.96328        0.48130
N          6.42037        2.98657        0.69682
H          0.87482       -0.85943       -1.20647
H          0.95233        0.67421       -1.74245
H          3.11913       -0.26611       -1.55709
H          2.80208       -0.58726        0.15453
H          2.45146        1.88888        0.53284
H          2.85514        2.17501       -1.16710
H          4.73500        0.83873        0.85823
H          6.18782        1.56599       -0.92180
H          4.44455        3.27280        1.39269
H          4.73564        3.68379       -0.31100
H          6.64934        2.40051        1.50153
H          6.69690        3.93387        0.95993
