17
-1715.76
C          2.03652       -0.26626       -1.51424
O          2.14462        0.40565       -0.26712
C          3.29801        1.23645       -0.18670
C          3.57953        1.57507        1.28193
C          2.93264        2.93871        1.53495
C          2.82053        3.51579        0.16390
C          3.00914        2.58181       -0.77477
H          1.13124       -0.87941       -1.49532
H          2.89689       -0.92420       -1.67033
H          1.95348        0.44750       -2.33896
H          4.17130        0.75177       -0.63826
H          4.66290        1.66250        1.43740
H          3.20109        0.81872        1.97727
H          3.55770        3.55563        2.18742
H          1.94025        2.83652        1.98657
H          2.56591        4.54693       -0.03364
H          2.93282        2.76085       -1.83740
