17

C	1.711161	-0.348811	-0.940401
O	1.661258	0.776763	-0.111523
C	2.882979	1.399585	0.034155
C	3.350686	2.363676	-1.020868
C	2.864838	2.855278	0.325718
C	3.834365	3.469875	1.297664
O	4.119672	4.809237	0.999341
H	0.695241	-0.763078	-1.002858
H	2.385099	-1.130121	-0.537596
H	2.055651	-0.095771	-1.961836
H	3.655718	0.787769	0.527479
H	2.689999	2.516941	-1.877969
H	4.421342	2.409085	-1.247285
H	1.866465	3.304932	0.321113
H	4.755397	2.849134	1.334171
H	3.407753	3.458716	2.313785
H	4.376774	4.847029	0.071441
