16

C	2.325334	-1.078679	0.774176
C	3.7794	-0.905053	0.409666
O	4.020283	0.449867	0.133492
C	5.337889	0.742032	-0.22106
C	5.525368	2.222757	-0.512591
N	4.410981	2.968031	-0.356277
O	6.607815	2.652723	-0.853404
H	2.104046	-2.132861	0.995713
H	1.678548	-0.754737	-0.054888
H	2.075298	-0.477567	1.661071
H	4.036142	-1.525457	-0.473967
H	4.433577	-1.246996	1.238399
H	5.657142	0.191038	-1.128181
H	6.0542	0.475517	0.581776
H	3.54631	2.525016	-0.076638
H	4.455328	3.959438	-0.546917
