12
-1274.41
O          1.27299        0.00325        0.73584
C          2.37571        0.09330        0.21506
N          3.13282        1.22323        0.18191
C          2.70994        2.60090        0.44825
C          3.88646        3.04202       -0.44616
O          4.33621        4.10625       -0.81597
C          4.25809        1.56445       -0.68649
H          2.86213       -0.75753       -0.28993
H          2.80504        2.88596        1.49733
H          1.72354        2.84742        0.05120
H          4.13815        1.23010       -1.71858
H          5.22516        1.26722       -0.27756
