13

C	0.947071	-0.094856	0.00928
C	2.415582	0.091917	0.015379
C	3.225598	1.194241	-0.079549
N	2.894432	2.530746	-0.266876
C	4.533684	0.629665	-0.027139
N	4.497047	-0.671763	0.09226
O	3.187911	-1.009972	0.110038
H	0.4359	0.856672	0.213757
H	0.644481	-0.819376	0.780058
H	0.584223	-0.469181	-0.962283
H	3.504246	3.1717	0.228348
H	1.925916	2.745017	-0.057907
H	5.494979	1.14226	-0.071997
