12
-1242.64
C          1.00000        0.00000        0.00000
C          2.19016        0.00000        0.00000
C          3.63416        0.00000        0.00000
C          4.01263        1.44335        0.06657
C          4.22583        2.14776        1.38237
O          5.32805        1.68107        0.59115
H         -0.06589       -0.00179       -0.00033
H          4.03323       -0.44816       -0.91536
H          4.03080       -0.56293        0.85162
H          3.71660        2.01766       -0.80221
H          4.00745        1.61885        2.30140
H          4.05676        3.21617        1.42342
