17
-1716.77
C          1.76187       -0.56372       -1.17410
C          2.46041       -0.06731       -0.14536
C          3.04865        1.31329       -0.11583
C          4.56589        1.27096        0.06972
C          5.15786        2.67689        0.08603
C          6.65279        2.67624        0.29454
O          7.33499        1.67126        0.46091
H          1.35787       -1.57100       -1.13550
H          1.57719        0.01523       -2.07358
H          2.61363       -0.68874        0.73537
H          2.59036        1.86739        0.71214
H          2.80476        1.85677       -1.03694
H          5.02662        0.68721       -0.73803
H          4.81313        0.75557        1.00704
H          4.71406        3.27074        0.89230
H          4.95834        3.18583       -0.86314
H          7.12202        3.67542        0.29516
