17

C	4.394288	-0.226594	-2.011635
O	4.39233	-0.592897	-0.664742
C	4.24142	0.490257	0.215535
C	5.434303	1.407798	0.242282
C	6.789304	0.796772	0.444677
N	5.215096	2.665088	0.126842
N	6.238212	3.529012	0.255594
H	4.508186	-1.143223	-2.607479
H	5.224003	0.462999	-2.263828
H	3.448439	0.270181	-2.306979
H	4.096388	0.038192	1.212229
H	3.346629	1.097992	-0.018836
H	6.725772	-0.298634	0.404764
H	7.220455	1.098943	1.415663
H	7.502271	1.114375	-0.338817
H	6.025642	4.424702	-0.166107
H	7.171843	3.192259	0.017448
