19
-1763.12
C          1.19195       -0.53358        0.75056
C          2.69551       -0.67302        0.56574
C          3.31324        0.62784        0.04005
N          4.77086        0.48689       -0.17932
C          5.23417        1.66405       -0.93702
N          5.48489        0.23257        0.95553
C          6.48970       -0.55222        0.74697
H          0.76631       -1.47158        1.12167
H          0.70001       -0.28928       -0.19663
H          0.95745        0.25489        1.47306
H          2.89578       -1.49218       -0.13610
H          3.14312       -0.95151        1.52719
H          3.11360        1.44780        0.74155
H          2.81949        0.87563       -0.90786
H          4.70255        1.75136       -1.89031
H          6.29831        1.56704       -1.17738
H          5.09725        2.58849       -0.36532
H          7.14417       -0.83029        1.58789
H          6.74160       -0.97496       -0.24095
