19

C	2.485407	-0.79171	1.411902
C	2.439052	-0.031902	0.116662
C	1.850844	-0.544969	-0.970714
C	3.124668	1.337204	0.131628
C	3.186203	2.000773	-1.241314
C	2.434029	2.269019	1.123425
O	4.449798	1.17697	0.62887
H	3.504683	-0.780445	1.825488
H	2.15831	-1.832157	1.280565
H	1.833302	-0.326876	2.169671
H	1.384647	-1.533833	-0.939543
H	1.798982	-0.012565	-1.922472
H	3.693835	1.35303	-1.97337
H	3.75871	2.935301	-1.156157
H	2.186352	2.240668	-1.630603
H	2.471938	1.853806	2.139637
H	1.383406	2.428765	0.842353
H	2.953617	3.238126	1.137998
H	4.915807	0.594395	0.018183
