15

C	1.221249	0.138434	0.57018
C	2.5657	-0.12749	-0.041147
C	3.361409	0.953622	-0.661515
N	3.758512	0.398188	0.642233
C	4.702142	-0.648684	0.476521
N	4.332697	-1.723525	-0.089421
C	2.929888	-1.557281	-0.446872
H	1.150851	1.173565	0.932277
H	1.046025	-0.536123	1.42234
H	0.420786	-0.026234	-0.168048
H	2.992792	1.98401	-0.632342
H	3.992388	0.709801	-1.525108
H	5.718443	-0.492846	0.856269
H	2.77897	-1.773138	-1.517479
H	2.317607	-2.286609	0.112272
