19

C	0.96884	0.003476	-0.03945
C	2.486602	0.010805	0.012447
N	2.99682	0.059278	-1.35535
C	3.065171	1.118395	0.91575
C	4.495444	0.647727	1.169641
N	4.390575	-0.807581	1.207096
C	3.085665	-1.221983	0.70573
H	0.531544	-0.051781	0.968915
H	0.612366	-0.853176	-0.630674
H	0.589536	0.920589	-0.519566
H	4.011157	-0.033829	-1.357493
H	2.79403	0.967084	-1.772529
H	2.503704	1.157225	1.863609
H	3.009582	2.115924	0.452135
H	5.161185	1.006428	0.358292
H	4.90378	1.05901	2.10956
H	5.163502	-1.275538	0.751752
H	3.156487	-2.068168	0.004179
H	2.424281	-1.537875	1.535067
