15

C	1.265902	-0.336487	-0.355227
N	2.697715	-0.243788	-0.449373
N	3.218003	0.981441	-0.360707
C	4.438365	1.144021	-0.031435
C	5.039907	2.520212	-0.014415
C	5.678657	2.849396	1.256963
C	6.204904	3.102718	2.318026
H	0.947284	-1.345044	-0.657341
H	0.814379	0.388291	-1.047227
H	0.869841	-0.132394	0.659233
H	3.218087	-0.992017	0.012834
H	5.093486	0.294807	0.240391
H	4.238354	3.24238	-0.237687
H	5.790271	2.617949	-0.82165
H	6.668455	3.333094	3.259185
