16
-1633.93
C          0.99033       -0.01265        0.05674
C          2.50679       -0.00372        0.06516
C          3.10405        1.16671        0.83573
C          4.48436        0.65507        1.24327
C          4.27804       -0.83685        1.32814
O          5.06020       -1.65255        1.78266
N          3.06441       -1.13922        0.74224
H          0.61302       -0.88908       -0.48073
H          0.59946        0.88421       -0.43380
H          0.58395       -0.05296        1.07316
H          2.88938       -0.01673       -0.96282
H          2.51696        1.38229        1.73777
H          3.15471        2.08373        0.24120
H          5.23227        0.86638        0.47335
H          4.80016        1.06420        2.20561
H          2.84278       -2.10792        0.54618
