17
-1703.97
C          2.07523       -0.54499       -0.34670
O          3.36172        0.05841       -0.30702
C          3.43272        1.40117       -0.02090
C          2.39236        2.23107        0.17250
C          4.80509        1.88394        0.04855
C          5.64923        1.65543       -1.17447
C          5.29429        2.48604        1.14571
H          2.20854       -1.60788       -0.56908
H          1.46204       -0.10992       -1.14239
H          1.57382       -0.46476        0.62347
H          1.36150        1.90758        0.12214
H          2.55314        3.28515        0.37817
H          5.76531        0.58598       -1.37882
H          6.65333        2.07865       -1.06056
H          5.19166        2.12962       -2.04964
H          4.68765        2.63092        2.03442
H          6.32131        2.83351        1.18925
