14
-1485.68
C          0.93511       -0.17708       -0.00557
C          2.39094        0.04125       -0.00333
C          3.21445        1.14840       -0.00718
C          2.85665        2.58146       -0.01549
N          4.52976        0.74185       -0.00256
C          4.45000       -0.56978        0.00381
O          3.18522       -1.07165        0.00371
H          0.39242        0.77296        0.00376
H          0.63223       -0.74986        0.87622
H          0.63275       -0.73242       -0.89861
H          3.75246        3.21013       -0.00400
H          2.25451        2.83199        0.86348
H          2.28008        2.82760       -0.91265
H          5.25631       -1.28841        0.00899
