17

C	1.004153	0.110502	-0.379033
C	2.461408	-0.011219	0.057861
C	2.780939	-1.315596	0.829748
C	3.39892	-0.885232	2.14684
C	3.866354	-1.686309	3.115497
C	3.388407	0.575751	2.161524
C	2.880951	1.06788	1.019874
H	0.731029	-0.696011	-1.077649
H	0.814081	1.070737	-0.884417
H	0.331441	0.048521	0.4915
H	3.090997	0.055818	-0.849229
H	3.46199	-1.973363	0.267733
H	1.861532	-1.896265	1.01233
H	3.835386	-2.775421	3.021959
H	4.294451	-1.272927	4.032214
H	3.757581	1.168114	3.001757
H	2.77029	2.13135	0.78899
