14
-1341.91
C          2.73488       -0.93562       -0.06355
O          4.03664       -0.36145       -0.08259
N          3.90762        1.03406       -0.01648
C          5.08700        1.55650       -0.04587
C          5.18668        3.02134        0.00717
C          5.14708        3.73800        1.33008
O          6.38204        3.50655        0.64176
H          2.83573       -2.02250       -0.12205
H          2.15489       -0.58830       -0.92407
H          2.22095       -0.67816        0.86754
H          6.01659        0.96587       -0.11363
H          4.83924        3.55211       -0.87009
H          4.95200        3.16249        2.22665
H          4.76563        4.75088        1.35095
