15
-1590.04
C          1.06160        0.08765       -0.00333
C          2.53424       -0.06074       -0.09462
C          3.27623       -1.16665        0.01330
C          4.71504       -0.79427       -0.16895
C          4.62154        0.68692       -0.42512
C          5.61373        1.53350       -0.71070
O          3.29188        1.08587       -0.34889
H          0.56332       -0.88463        0.04380
H          0.67805        0.62067       -0.87875
H          0.79149        0.65521        0.89211
H          2.91384       -2.16515        0.19908
H          5.28537       -1.00818        0.73927
H          5.14807       -1.32247       -1.02232
H          6.64114        1.19399       -0.77937
H          5.40807        2.58325       -0.88805
