13

C	0.941905	0.055758	0.017106
C	2.426295	0.074489	-0.024495
C	3.28879	1.109103	-0.091728
N	4.586236	0.661729	-0.233534
O	4.567246	-0.718545	-0.084348
C	3.253992	-1.134251	-0.021211
N	3.008939	-2.376343	0.015513
H	0.522976	1.070973	0.016187
H	0.578918	-0.46142	0.920851
H	0.527738	-0.483435	-0.851731
H	3.094836	2.182657	-0.105152
H	5.291807	1.042582	0.396502
H	2.001692	-2.529495	0.044022
