16
-1490.75
C          1.09302       -0.12523       -0.01890
C          2.57540        0.00571       -0.06979
N          3.30757       -0.44626       -1.24940
C          3.22873        1.00092       -0.99624
C          4.46647        1.73610       -0.58462
N          5.31855        1.87632       -1.76058
H          0.67987        0.57627        0.71344
H          0.81247       -1.13873        0.28681
H          0.62236        0.08097       -0.98684
H          3.04161       -0.20640        0.88480
H          2.67758       -0.69880       -2.01267
H          2.61192        1.57586       -1.67749
H          5.00991        1.20015        0.20210
H          4.20192        2.72573       -0.19820
H          5.48070        0.93581       -2.12720
H          6.23044        2.22122       -1.46798
