18

C	0.942261	-0.13987	0.254151
C	2.450147	-0.282608	0.182731
N	3.095639	1.007989	0.090152
C	4.534764	0.956135	0.030309
C	5.112889	2.35735	-0.165818
C	6.564378	2.373504	-0.281824
C	7.771668	2.368942	-0.377494
H	0.449889	-1.122858	0.279839
H	0.566361	0.419519	-0.615681
H	0.636232	0.405899	1.162443
H	2.723262	-0.865656	-0.715132
H	2.810325	-0.884694	1.049117
H	2.802069	1.593444	0.871076
H	4.828687	0.327144	-0.827525
H	5.006102	0.487816	0.923894
H	4.813704	3.002831	0.680112
H	4.655458	2.802164	-1.065614
H	8.842314	2.367331	-0.465626
