11
-1239.16
O          1.23553       -0.03162       -0.79929
C          2.33492       -0.04643       -0.01004
O          2.69331       -1.03714        0.60371
C          3.07100        1.25054        0.00000
C          2.39455        2.40833        0.08668
C          4.47700        1.25054        0.00000
C          5.66716        1.25054        0.00000
H          1.16409        0.76375       -1.35760
H          1.31282        2.44636        0.16648
H          2.91846        3.35976        0.13207
H          6.73253        1.23843        0.00663
