14
-1316.14
C          0.95790       -0.00755        0.00836
C          2.47128        0.01868        0.01037
C          3.15495        1.01731        0.96748
N          4.17448       -0.01898        1.25635
C          3.19130       -1.05310        0.85533
H          0.58921       -0.86458       -0.56402
H          0.55828        0.90161       -0.45185
H          0.55225       -0.07903        1.02280
H          2.87017        0.08154       -1.01245
H          2.56494        1.29883        1.84768
H          3.54496        1.92702        0.50215
H          4.97792        0.02909        0.62886
H          3.61196       -1.89307        0.29541
H          2.61331       -1.44837        1.69910
