16
-1443.74
C          1.33618       -0.39624        0.06034
C          2.80666       -0.09617        0.29833
C          3.25141        1.14470       -0.46456
S          4.98006        1.49956       -0.16499
N          5.22255        2.83935       -1.14433
O          5.15579        1.97566        1.18658
O          5.80180        0.45810       -0.73424
H          1.04089       -1.29982        0.60278
H          1.13562       -0.55789       -1.00358
H          0.70675        0.42933        0.40747
H          3.40670       -0.95994       -0.01102
H          2.98010        0.03984        1.37220
H          2.67955        2.02294       -0.14842
H          3.13116        0.99936       -1.54278
H          5.90919        2.61925       -1.86882
H          5.48169        3.64590       -0.57317
