18
-1760.18
C          1.01565       -0.15867        0.30115
N          2.41201        0.14437        0.00446
C          2.93064        1.17032        0.94533
C          4.22192        0.33817        1.03832
C          3.31532       -0.85396        0.64284
C          3.87846       -1.77970       -0.36504
C          4.78630       -2.69725       -0.00935
H          0.69438       -1.03558       -0.27079
H          0.38093        0.67924       -0.00630
H          0.82178       -0.35736        1.36187
H          2.39848        1.26071        1.90107
H          3.05007        2.16787        0.51263
H          4.98363        0.61905        0.30046
H          4.68324        0.28436        2.02789
H          2.89126       -1.37754        1.51193
H          3.54600       -1.70697       -1.39678
H          5.13971       -2.79171        1.01262
H          5.20121       -3.37600       -0.74822
