13
-1307.18
C          0.95638        0.03247        0.34644
C          2.43091        0.02228       -0.04098
O          2.54640       -0.53167       -1.35179
C          3.02739        1.43282        0.00000
C          4.47091        1.40106       -0.01925
N          5.62154        1.37576       -0.03459
H          0.81566        0.39647        1.36915
H          0.53571       -0.97641        0.27424
H          0.37482        0.66583       -0.33322
H          2.97042       -0.64387        0.64217
H          1.93600       -0.06780       -1.95059
H          2.69929        1.94726        0.91097
H          2.66337        2.01675       -0.85363
