13
-1402.19
C          2.61862       -1.12898        0.35917
C          2.17715        0.12222        0.16964
N          2.98464        1.26327        0.11027
C          2.49847        2.54924       -0.08758
C          3.56535        3.41164       -0.08963
C          4.67500        2.58437        0.11237
N          4.34341        1.29995        0.23335
H          1.93009       -1.96587        0.39369
H          3.67717       -1.34014        0.48344
H          1.11479        0.30601        0.04825
H          1.43879        2.72155       -0.20736
H          3.54235        4.48358       -0.21870
H          5.71953        2.86135        0.17754
