17
-1673.08
C          1.12316        0.00647       -0.17071
N          2.56484        0.01805       -0.25208
C          3.29294       -1.17933        0.11494
C          4.66394       -0.61621        0.50433
N          4.56887        0.86645        0.44472
C          3.35334        1.10866        0.02793
C          2.89613        2.52900       -0.13658
H          0.72762       -0.99537       -0.36850
H          0.68727        0.68115       -0.91361
H          0.78924        0.31453        0.82554
H          3.37036       -1.86838       -0.73186
H          2.83055       -1.70012        0.95969
H          5.44376       -0.96277       -0.18213
H          4.93780       -0.92686        1.51803
H          1.83330        2.59348       -0.37379
H          3.46717        2.99320       -0.94594
H          3.08744        3.08014        0.78836
