11
-1148.41
C          1.98553        0.32600       -0.67843
C          2.67167       -0.00425        0.67556
C          3.36926        1.29391        0.53938
N          3.83146        2.28986        1.27115
S          3.61384        3.60850        0.18538
N          2.67330        2.84721       -1.03972
C          2.76433        1.58472       -0.66686
H          0.90167        0.47287       -0.71053
H          2.24527       -0.33789       -1.51090
H          3.35076       -0.86444        0.65847
H          2.06310       -0.09290        1.58050
