15
-1541.37
C          0.88937        0.06466        0.06045
C          2.39950       -0.03217        0.00644
C          3.18760        0.93846        0.89448
O          4.01436       -0.14555        1.39120
C          3.05613       -1.11744        0.88284
C          3.73841       -2.18005        0.18114
C          4.29945       -3.06847       -0.40047
H          0.43184       -0.78162       -0.46241
H          0.54504        0.98401       -0.42374
H          0.51825        0.06552        1.09055
H          2.75810       -0.02230       -1.03162
H          2.63363        1.41376        1.71048
H          3.77559        1.68852        0.35889
H          2.42809       -1.48073        1.70592
H          4.80370       -3.85528       -0.91246
