17
-1745.35
C          2.80785       -1.00783       -0.73486
C          2.45812        0.03815        0.31895
C          3.02739        1.43282        0.00000
C          2.54021        2.43063        1.02494
C          1.78511        3.50198        0.74433
C          4.47139        1.43282        0.00000
C          5.66155        1.43282        0.00000
H          2.31114       -1.95541       -0.50262
H          3.88500       -1.19891       -0.76863
H          2.48194       -0.68887       -1.72988
H          2.81718       -0.31342        1.29537
H          1.36418        0.09860        0.38874
H          2.66904        1.73024       -0.99435
H          2.83017        2.25335        2.05974
H          1.46951        3.72988       -0.26894
H          1.47122        4.17999        1.53196
H          6.72709        1.43609        0.00106
