16

C	1.010701	0.016014	-0.024964
N	2.449858	-0.002014	-0.008424
C	3.241613	1.117481	0.009053
C	4.559251	0.718487	0.02853
C	4.560239	-0.699978	0.021312
C	3.243767	-1.124731	-0.001326
C	2.693493	-2.512312	-0.014343
H	0.666039	1.057011	-0.056172
H	0.58851	-0.457075	0.876458
H	0.610738	-0.502542	-0.910784
H	2.797648	2.111085	0.008627
H	5.425559	1.377127	0.04507
H	5.429677	-1.355742	0.032092
H	1.601004	-2.530721	0.107573
H	3.122068	-3.114655	0.801516
H	2.923257	-3.034085	-0.95844
