21
-2066.04
C          0.98270        0.01847       -0.01569
C          2.50052        0.01474        0.04565
C          3.06933        1.12416        0.92453
C          4.49793        0.65876        1.15734
C          4.35949       -0.84842        1.39111
C          5.59086       -1.62271        0.94325
C          3.08030       -1.27044        0.64817
H          0.61972       -0.80585       -0.63801
H          0.61663        0.95608       -0.44664
H          0.54065       -0.08977        0.98045
H          2.89450        0.13236       -0.97260
H          2.53055        1.19228        1.87729
H          3.03012        2.10252        0.43631
H          5.10745        0.86681        0.26926
H          4.96113        1.16572        2.00897
H          4.21075       -1.02741        2.46435
H          5.77748       -1.49055       -0.12649
H          5.46382       -2.69334        1.13480
H          6.47898       -1.28421        1.48737
H          3.26812       -2.01435       -0.13386
H          2.38107       -1.72316        1.36153
