15

C	1.092793	-0.048454	0.438471
C	2.531634	-0.090882	0.038859
N	3.085174	-1.052752	-0.59798
O	2.204083	-2.05696	-0.910339
C	3.431142	1.046074	0.362931
C	2.982855	2.46245	0.284611
N	3.140811	1.812541	1.567925
H	0.461408	0.25208	-0.413984
H	0.954855	0.663631	1.263485
H	0.757824	-1.04836	0.746239
H	2.765902	-2.71405	-1.332967
H	4.476144	0.84334	0.102099
H	1.949874	2.692125	-0.000261
H	3.71886	3.20467	-0.044878
H	4.000771	2.09626	2.033167
