15
-1539.55
C          0.51431       -0.24749        0.06277
C          1.96819       -0.52634        0.30265
C          2.45220       -1.74465        0.57265
O          2.83614        0.58493        0.36955
C          2.92628        1.35945       -0.75934
C          3.86289        2.50097       -0.49436
O          2.35642        1.18079       -1.82701
H          0.19593        0.63018        0.63461
H         -0.11217       -1.08893        0.37798
H          0.31543       -0.06590       -0.99694
H          1.81200       -2.62052        0.57793
H          3.50535       -1.89176        0.78821
H          4.84390        2.11667       -0.20348
H          3.45239        3.14280        0.28903
H          3.98045        3.09289       -1.40684
