19
-1842.76
C          4.96338       -0.14387        2.03551
O          4.06491        0.95835        2.08168
C          3.88680        1.58932        0.80817
C          2.61189        2.42679        0.88732
C          5.09713        2.43822        0.46019
C          5.51632        3.48835        1.45342
C          5.78193        2.25044       -0.68119
H          4.96965       -0.61806        3.02020
H          5.97960        0.19031        1.81048
H          4.63530       -0.88219        1.29822
H          3.72207        0.81450        0.04752
H          2.64816        3.14223        1.71569
H          1.75024        1.77882        1.08253
H          2.42995        2.97186       -0.04384
H          5.67947        3.04627        2.44078
H          4.75105        4.26587        1.53975
H          6.44988        3.97856        1.15805
H          5.49412        1.49046       -1.40126
H          6.65255        2.85255       -0.92703
