19

C	2.325883	-0.382722	1.708594
C	2.21363	0.000278	0.234641
C	2.917447	1.286672	-0.117905
C	2.245134	2.377465	-0.504605
C	4.406121	1.255992	-0.013444
C	5.221962	0.706725	-1.156898
C	5.294905	2.163554	-0.805361
H	1.77084	-1.31011	1.916529
H	1.914936	0.40916	2.354003
H	3.37044	-0.553125	2.011333
H	1.150605	0.082966	-0.042491
H	2.638305	-0.811828	-0.382701
H	1.155008	2.366754	-0.597133
H	2.75493	3.315057	-0.739622
H	4.777555	0.983003	0.9814
H	4.682318	0.436826	-2.069648
H	6.076235	0.063418	-0.929545
H	6.20269	2.538201	-0.325614
H	4.828376	2.872865	-1.493412
