14

C	1.744117	-0.608686	-0.657355
O	3.120762	-0.386773	-0.462454
N	3.366316	0.936378	-0.29642
C	4.619186	1.163674	-0.101889
C	5.660521	0.084031	-0.064573
C	5.001346	2.529457	0.081454
C	5.394708	3.665692	0.243824
H	1.626513	-1.692622	-0.787176
H	1.379807	-0.086093	-1.556835
H	1.15858	-0.274348	0.215054
H	5.385047	-0.672891	0.685521
H	6.650962	0.492332	0.166843
H	5.695191	-0.43434	-1.035621
H	5.731913	4.675739	0.387767
