13
-1329.81
N          1.19057        0.15795        0.44064
C          2.44048        0.19634        0.13735
N          3.31223        1.22029        0.38054
C          2.75891        2.55853        0.49129
C          3.82022        3.00694       -0.51989
O          4.16201        4.05988       -1.01373
C          4.25979        1.54570       -0.66511
H          0.79216       -0.74531        0.15976
H          2.92122       -0.67254       -0.34827
H          2.88103        2.97340        1.49340
H          1.73625        2.68026        0.12682
H          4.03273        1.11093       -1.64162
H          5.29046        1.34765       -0.36593
