15

C	0.989266	-0.007311	0.377106
C	2.424476	-0.046311	-0.105873
C	2.820918	1.228426	-0.839291
O	4.132624	1.12619	-1.358478
C	4.49999	-0.107653	-1.771726
N	3.84423	-1.190356	-1.653287
N	2.616357	-1.125825	-1.05062
H	0.834344	0.81511	1.091943
H	0.722813	-0.945877	0.887732
H	0.300618	0.123338	-0.471498
H	3.110355	-0.148213	0.763534
H	2.809131	2.096124	-0.162851
H	2.107854	1.413232	-1.661726
H	5.477254	-0.110659	-2.260038
H	2.36571	-2.041175	-0.692257
