13

C	0.971013	0.111658	-0.006113
C	2.452666	0.011526	-0.000588
N	3.2335	1.038819	0.005868
N	4.583306	0.606501	0.00933
C	4.612031	-0.678364	0.005213
C	3.254223	-1.226479	-0.002455
C	2.847593	-2.503304	-0.008775
H	0.677272	1.168718	0.000908
H	0.534292	-0.384395	0.87547
H	0.542292	-0.369933	-0.899622
H	5.549402	-1.239875	0.00685
H	1.784806	-2.761882	-0.013721
H	3.565125	-3.328599	-0.009025
