12
-1242.71
C          1.08824        0.05108        0.15793
C          2.41098        0.03172       -0.01860
C          3.29152       -1.20562       -0.08201
N          4.67742       -0.68776       -0.38670
C          4.50981        0.60302       -0.42939
N          3.26214        1.07287       -0.20736
H          0.53310        0.98207        0.17990
H          0.52930       -0.87062        0.28397
H          2.97830       -1.88186       -0.88339
H          3.31271       -1.73164        0.87766
H          5.29842        1.34209       -0.63545
H          2.95869        2.02938       -0.29521
