15
-1509.54
C          1.89301        0.17254       -0.79685
O          1.69970       -0.06022        0.60314
C          0.51315        0.07195       -0.19361
C         -0.33471        1.24164        0.14096
C         -1.72526        0.70343       -0.15973
O         -1.66304       -0.71026        0.10197
C         -0.34167       -1.14304       -0.27629
H          2.26429        1.14538       -1.09349
H          2.26447       -0.65222       -1.39202
H         -0.24740        1.48629        1.20504
H         -0.11187        2.13637       -0.44694
H         -2.49960        1.16352        0.46041
H         -1.98790        0.84118       -1.21502
H         -0.38772       -1.52823       -1.30001
H         -0.02927       -1.94428        0.39900
