14

C	0.651936	-0.787986	-0.052302
C	2.1348	-0.926304	0.018217
C	2.796156	-1.98166	0.511009
O	2.738673	0.193875	-0.472756
C	4.032659	0.142154	-0.876018
C	4.837819	1.199913	-0.802546
H	0.335196	0.117389	0.489012
H	0.147065	-1.65837	0.38403
H	0.328756	-0.66707	-1.098216
H	2.238894	-2.845509	0.872938
H	3.88416	-2.005089	0.589846
H	4.342697	-0.816649	-1.311615
H	4.497872	2.135518	-0.353781
H	5.846747	1.141939	-1.211328
