19
-1847.46
C          2.37753       -1.45782       -0.50594
C          1.86764       -0.12507        0.02149
C          2.96849        0.76358        0.54619
C          3.66404        0.32490        1.79879
O          3.85124        1.26315       -0.47248
C          2.97128        2.22588        0.11959
C          3.65581        3.30753        0.87703
H          1.54978       -2.04051       -0.92168
H          2.83841       -2.05167        0.28848
H          3.12238       -1.31176       -1.29397
H          1.13844       -0.30363        0.82096
H          1.32365        0.38076       -0.78623
H          4.48285        0.99135        2.08441
H          4.09534       -0.67357        1.67756
H          2.95393        0.29164        2.63080
H          2.14320        2.59746       -0.47080
H          4.68011        3.04286        1.15751
H          3.09616        3.54376        1.78669
H          3.70785        4.21474        0.26665
