15

C	0.744405	-0.161809	0.091901
C	2.235032	0.073803	-0.108547
C	2.76319	-0.549927	-1.368033
C	3.829941	-1.351357	-1.440869
C	2.557057	1.576256	-0.054151
O	3.74712	1.916963	-0.562265
O	1.833147	2.391343	0.439724
H	0.395855	0.366579	0.989201
H	0.529736	-1.234734	0.195063
H	0.17004	0.227714	-0.762734
H	2.790929	-0.355711	0.74694
H	2.222517	-0.291487	-2.288248
H	4.386134	-1.643321	-0.543169
H	4.174564	-1.759939	-2.394361
H	4.15429	1.133125	-0.963582
