14
-1444.52
C          0.92668       -0.04286        0.01069
C          2.41694        0.04444        0.01253
C          3.17127        1.20417        0.05252
N          2.73127        2.47858        0.09196
S          4.85265        0.88136        0.04903
C          4.59948       -0.80449       -0.00509
C          3.26105       -1.11816       -0.01993
H          0.44931        0.94133        0.02719
H          0.58013       -0.59809        0.88908
H          0.58076       -0.56769       -0.88659
H          3.39745        3.22625       -0.07676
H          1.77694        2.71082       -0.15710
H          5.44080       -1.48279       -0.02097
H          2.89533       -2.13703       -0.04973
