15
-1527.89
O          0.88763        0.12098       -0.29436
C          2.06207        0.09762        0.05781
C          2.98578        1.28500       -0.00672
C          2.27487        2.61672       -0.07125
C          3.30969        3.55513        0.50282
O          4.02134        2.81010        1.49923
C          3.80113        1.41186        1.26573
H          2.53000       -0.85361        0.36825
H          3.65197        1.16020       -0.86795
H          1.38089        2.61467        0.56424
H          1.96574        2.89675       -1.08213
H          4.02969        3.86796       -0.26129
H          2.86823        4.44805        0.95401
H          4.77004        0.90937        1.18071
H          3.28611        1.00297        2.14220
