17
-1658.75
C          0.95133        0.02249        0.35285
C          2.28783        0.44935       -0.25354
N          2.30148        0.11669       -1.66449
C          2.58770       -1.12296       -2.13014
N          2.33953       -1.54421       -3.31625
C          2.60390        1.92091       -0.16974
C          1.83169        2.90576        0.31148
H          0.90096        0.27595        1.41692
H          0.81522       -1.06075        0.26295
H          0.10521        0.49711       -0.15654
H          3.09292       -0.08670        0.26579
H          1.73136        0.71481       -2.24948
H          3.07404       -1.78744       -1.39548
H          1.90239       -0.79902       -3.86153
H          3.59328        2.19327       -0.54057
H          0.83707        2.73160        0.70799
H          2.19003        3.93142        0.31955
