11

N	1.003751	-0.025446	-0.000596
N	2.305216	-0.037151	-0.000472
C	2.965561	1.088326	-0.000705
C	2.299073	2.357078	-0.000291
C	1.664888	3.393934	3.3e-05
C	4.394048	1.054109	-0.000221
C	5.606942	1.079037	0.00016
H	0.538186	-0.920418	0.00094
H	0.467658	0.84279	0.000326
H	1.136155	4.329575	0.000307
H	6.681171	1.086975	0.0005
