12
-1292.77
C          1.00095       -0.05415        0.00328
C          2.52000        0.00000        0.00000
C          3.00202        1.36117        0.00000
C          3.39930        2.48307        0.00000
C          3.91084        3.92752        0.00000
C          4.31137        5.05759        0.00000
H          0.65752       -1.09354        0.00182
H          0.58478        0.44268       -0.88005
H          0.58885        0.43883        0.89067
H          2.89543       -0.53268       -0.88096
H          2.89936       -0.53426        0.87831
H          4.66744        6.06174        0.00000
