19
-1851.45
C          2.03677       -0.62902        1.25471
C          2.80066       -0.29894       -0.01922
C          3.26957        1.13003       -0.01667
C          4.53276        1.59717       -0.09355
C          5.76912        0.74665       -0.21502
C          4.80144        3.08228       -0.08497
O          5.55987        3.41592        1.06829
H          1.68549       -1.66575        1.22667
H          1.16123        0.01917        1.37300
H          2.67193       -0.51006        2.13930
H          2.14089       -0.44449       -0.88209
H          3.62132       -1.01076       -0.13010
H          2.45755        1.85565        0.04887
H          5.55875       -0.31674       -0.34141
H          6.39309        0.85401        0.67843
H          6.35660        1.06007       -1.08463
H          3.88021        3.67360       -0.06649
H          5.36691        3.37800       -0.97406
H          5.11261        2.99473        1.82323
