22

C	2.845283	-1.250303	1.25267
C	2.147613	0.101331	1.29914
C	2.868443	1.234668	0.558726
C	2.087763	2.539472	0.677897
C	4.320435	1.416857	1.009424
N	4.43081	1.726775	2.415722
C	5.776094	1.994671	2.854801
H	2.229421	-2.033445	1.72053
H	3.811155	-1.237462	1.782213
H	3.047023	-1.561201	0.214912
H	1.981234	0.404218	2.349301
H	1.135995	0.003638	0.86937
H	2.914478	0.947889	-0.508721
H	2.100267	2.894444	1.719524
H	1.039734	2.412033	0.364485
H	2.532779	3.32933	0.053005
H	4.758962	2.256767	0.44125
H	4.916694	0.521126	0.718457
H	4.026161	0.976481	2.970215
H	6.155438	2.909385	2.369635
H	6.505695	1.184124	2.629943
H	5.793322	2.173414	3.940902
