18
-1718.44
C          1.17556       -0.14285       -0.17609
C          2.62153        0.20194       -0.12848
O          3.37245       -0.21133       -1.27552
C          3.27686        1.21116       -1.06115
C          2.47001        1.93689       -2.09543
C          4.56700        1.85470       -0.62531
N          5.54625        1.79300       -1.70462
H          0.58174        0.65909        0.27320
H          0.99188       -1.05950        0.39382
H          0.81424       -0.31244       -1.19500
H          3.05104        0.04178        0.85211
H          1.67659        1.31564       -2.52127
H          3.10003        2.26484       -2.92857
H          2.00519        2.82347       -1.65227
H          4.97698        1.34845        0.25606
H          4.38915        2.89918       -0.34846
H          5.63027        0.81764       -1.99659
H          6.45982        2.06168       -1.34523
