10
-1118.32
O          2.55263       -1.20102        0.06450
C          2.11871       -0.05340       -0.00007
C          2.90184        1.15465        0.00337
C          2.46878        2.46257       -0.06668
N          3.46170        3.42344       -0.04262
C          4.63303        2.83109        0.04528
S          4.61036        1.11719        0.10308
H          1.02832        0.10536       -0.06836
H          1.43565        2.78215       -0.13721
H          5.56200        3.38585        0.07966
