17
-1561.11
C          2.55224       -1.08492        0.79160
C          2.76443       -0.01457       -0.26508
N          3.65619        1.00777        0.28494
C          3.92418        1.94289       -0.55771
N          4.72955        3.00683       -0.26861
O          5.46691        3.43292       -1.37769
C          5.64166        4.84013       -1.23306
H          1.88001       -1.86445        0.41915
H          2.11351       -0.65678        1.69909
H          3.50209       -1.55364        1.06925
H          1.79629        0.42341       -0.53520
H          3.20400       -0.47257       -1.15916
H          3.51621        1.97072       -1.58458
H          5.28942        2.83693        0.56483
H          6.20737        5.20436       -2.09468
H          6.20919        5.06492       -0.32380
H          4.67222        5.34865       -1.21223
