17
-1788.78
C          0.42023        1.43548        0.76757
C          1.38068        0.47265        0.01621
C          0.41476       -0.36583       -0.84700
C         -0.63344        0.68595       -1.22280
C         -0.96634        1.01664        0.23504
C         -1.25081       -0.38059        0.73703
C         -0.42143       -1.21140        0.08649
H          0.64609        2.47396        0.50044
H          0.50709        1.32966        1.85428
H          1.96782       -0.13819        0.71026
H          2.07153        1.04646       -0.61153
H          0.86078       -0.90416       -1.68369
H         -0.21622        1.53524       -1.77564
H         -1.48317        0.27552       -1.78290
H         -1.77452        1.73376        0.38107
H         -1.95109       -0.64372        1.51478
H         -0.32183       -2.27536        0.23699
