14
-1383.69
C          1.04451       -0.08233        0.46026
C          2.31787       -0.62894       -0.11254
C          2.54383       -1.94644       -0.25143
C          3.30084        0.39973       -0.57089
O          2.95375        1.53925       -0.87394
N          4.61876        0.02736       -0.52974
O          5.55920        1.06152       -0.74845
H          1.25680        0.55405        1.32572
H          0.37084       -0.87954        0.79261
H          0.50883        0.51218       -0.28743
H          1.80416       -2.67420        0.07144
H          3.43977       -2.34762       -0.71359
H          4.95067       -0.79019       -0.03272
H          4.97861        1.83580       -0.92080
