16
-1554.03
C          0.84106        0.04647        0.04831
C          0.42347       -0.15441        1.47103
C         -0.62336        0.71919        2.11149
O         -0.93179       -0.60008        1.63607
N          2.03614        0.89857        0.04367
C          3.26998        0.18592       -0.28241
C          2.59906        1.07615       -1.29301
H          1.00114       -0.93397       -0.41755
H          0.04140        0.54283       -0.51505
H          1.18093       -0.61461        2.09020
H         -1.01359        1.55988        1.55219
H         -0.57941        0.86844        3.18239
H          3.23773       -0.88618       -0.43325
H          4.16780        0.55312        0.20019
H          3.04117        2.04515       -1.49091
H          2.09178        0.61902       -2.13380
