12
-1246.32
C          1.02335       -0.05711       -0.07435
C          2.48824        0.16647        0.04281
O          3.26345       -0.44290       -0.99426
C          3.23623        0.99418       -0.97087
C          4.49362        1.57616       -0.61301
C          5.54642        2.06789       -0.31631
H          0.48279        0.65688        0.55448
H          0.76798       -1.06732        0.26004
H          0.66965        0.06071       -1.10383
H          2.85343        0.09607        1.05841
H          2.67149        1.48866       -1.75212
H          6.48539        2.49938       -0.05462
