13

C	1.043913	-0.046067	-0.008166
C	2.516994	0.090402	0.011039
N	3.242519	1.152281	-0.036894
C	4.552765	0.709486	-0.01067
C	4.544205	-0.653947	0.064139
N	5.498615	-1.633855	0.196627
O	3.255853	-1.05847	0.078589
H	0.601306	0.955319	-0.059324
H	0.675798	-0.554886	0.896748
H	0.706517	-0.631225	-0.878558
H	5.404191	1.385655	-0.042675
H	6.433588	-1.320555	-0.033489
H	5.266134	-2.501318	-0.275787
