16

C	1.733955	0.06683	-0.448474
C	0.796752	0.87913	0.361349
C	-0.648991	1.083051	-0.097775
C	-1.334399	0.080975	0.884428
C	-0.509161	-0.928115	0.047429
C	-0.849494	-0.019775	-1.15561
N	0.859259	-0.583335	0.516434
H	1.575008	-0.063423	-1.522749
H	2.789109	0.053293	-0.155447
H	1.167935	1.494236	1.189659
H	-1.00234	2.113197	-0.242041
H	-1.081135	0.152395	1.953917
H	-2.421859	-0.003828	0.740437
H	-0.700552	-2.009941	0.050442
H	-1.905472	-0.118926	-1.439502
H	-0.235024	-0.033856	-2.067098
