19
-1842.09
C          0.93327        0.59196        1.17219
O          2.34867        0.68904        1.09748
C          2.76154        1.48610       -0.01130
C          4.25705        1.53766        0.01151
C          5.06416        2.61806        0.02766
C          4.60483        4.04927        0.02551
C          6.56149        2.45119        0.06018
H          0.67592       -0.02808        2.03496
H          0.53338        0.11918        0.27000
H          0.48736        1.58162        1.30870
H          2.29835        2.47334        0.05934
H          2.43422        1.00985       -0.94219
H          4.71625        0.55042        0.02169
H          3.52049        4.16144       -0.02268
H          5.02380        4.57648       -0.83850
H          4.94704        4.55414        0.93540
H          6.86394        1.39876        0.06371
H          6.97522        2.91870        0.95963
H          7.01419        2.92360       -0.81775
