20

C	2.035079	-0.527154	-1.292015
N	2.28159	0.055615	0.003977
C	3.16651	1.189959	-0.027916
C	2.58327	2.508832	-0.577299
C	3.241493	3.261498	0.603393
C	4.54493	3.95723	0.255912
C	3.414803	1.898258	1.314217
H	1.374907	-1.402755	-1.196701
H	2.950899	-0.844882	-1.839077
H	1.51506	0.202233	-1.935631
H	2.652342	-0.645018	0.642602
H	4.132808	0.965565	-0.534868
H	1.48519	2.493621	-0.500049
H	2.872375	2.816794	-1.594447
H	2.575936	3.968198	1.124872
H	5.234913	3.277257	-0.27085
H	5.058655	4.315595	1.162303
H	4.370574	4.825745	-0.39926
H	4.373821	1.711705	1.824052
H	2.588445	1.686284	2.009687
