17
-1699.6
O          2.30980       -0.94797       -0.37960
C          1.92017        0.35516        0.02598
C          3.13812        1.20804        0.11029
C          3.61862        1.98991       -1.08369
C          3.01113        2.71325        0.09213
C          3.88156        3.49296        0.97525
C          3.65089        3.73712        2.27219
H          1.50620       -1.49387       -0.37866
H          1.44007        0.28819        1.00724
H          1.19464        0.74330       -0.69647
H          3.89023        0.76028        0.75110
H          3.04214        1.93801       -2.00066
H          4.68914        2.04323       -1.24689
H          2.02553        3.14327       -0.06041
H          4.78487        3.90970        0.53277
H          2.76722        3.35175        2.76963
H          4.34690        4.32664        2.85949
