13

C	1.77218	-0.217831	-1.236311
C	2.213904	0.08023	-0.013944
C	3.314319	1.038312	0.240012
O	3.890292	1.681234	-0.868098
C	3.135146	2.493958	0.010978
C	3.83791	3.483663	0.790567
C	4.397104	4.327632	1.455247
H	0.952534	-0.923155	-1.392
H	2.233498	0.240418	-2.115997
H	1.774845	-0.385871	0.874946
H	4.027163	0.758901	1.029845
H	2.161887	2.812908	-0.387458
H	4.897848	5.077382	2.040332
