15
-1482.57
N          2.16004       -0.45177       -1.39486
C          2.11417        0.15786       -0.06666
C          3.16208        1.25747        0.05431
C          2.88802        2.59224       -0.68106
C          3.16556        3.22147        0.69419
O          3.47704        4.29542        1.14527
N          3.02199        2.01661        1.31377
H          1.41810       -1.14888       -1.46664
H          3.03284       -0.96780       -1.50747
H          2.29217       -0.61707        0.68739
H          1.10826        0.55777        0.10386
H          4.19008        0.88864       -0.06076
H          1.86702        2.75674       -1.03751
H          3.61146        2.85641       -1.45473
H          3.52128        1.88850        2.18363
