14

C	0.927252	-0.015476	0.01938
C	2.380721	0.002779	0.010277
C	3.593005	0.028995	0.004105
C	5.068915	0.015058	-0.056037
N	5.624333	-0.708238	-1.194813
C	5.596913	1.386763	-0.01575
C	6.027196	2.516831	0.017652
H	0.518862	1.007067	0.015687
H	0.539712	-0.528612	0.913623
H	0.530209	-0.537594	-0.865575
H	5.434489	-0.491446	0.85764
H	5.305609	-0.26581	-2.055909
H	5.242311	-1.652471	-1.200491
H	6.411781	3.519484	0.04747
