14
-1396.43
C          1.00000        0.00000        0.00000
C          2.44400        0.00000        0.00000
C          3.63416        0.00000        0.00000
C          5.07816        0.00000        0.00000
O          5.55073        1.34526        0.12244
N          6.95679        1.34066        0.13099
C          7.36544        2.55870        0.24590
H          0.60597        1.02087        0.01203
H          0.60592       -0.52082        0.87808
H          0.60592       -0.50000       -0.89010
H          5.46384       -0.42859       -0.93180
H          5.46313       -0.58979        0.83952
H          8.44406        2.77648        0.27321
H          6.67838        3.41868        0.32065
