13
-1391.47
C          1.00000        0.00000        0.00000
C          2.44400        0.00000        0.00000
C          3.63416        0.00000        0.00000
C          5.07816        0.00000        0.00000
O          5.55206       -0.66932       -1.16269
C          5.56018        1.36117        0.00000
C          5.95746        2.48307        0.00000
H          0.60603        1.02089        0.01162
H          0.60593       -0.52049        0.87826
H          0.60598       -0.50032       -0.88994
H          5.46277       -0.54394        0.86826
H          5.18127       -0.18220       -1.91747
H          6.31470        3.48808        0.00037
