15

C	2.110842	-0.176732	0.004407
C	0.764675	-0.830768	0.15024
C	-0.445028	-1.383295	-0.557349
N	-1.554149	-0.501331	-0.149104
C	-1.341726	0.649378	0.365303
N	-0.112268	1.296195	0.5844
C	0.854289	0.623485	-0.210748
H	2.724639	-0.278542	-0.896067
H	2.68512	-0.118613	0.932953
H	0.569542	-0.904106	1.227987
H	-0.705316	-2.409276	-0.248621
H	-0.360897	-1.394212	-1.657514
H	-2.21322	1.235634	0.694136
H	-0.151321	2.310715	0.604215
H	0.702317	0.78357	-1.28963
