17

C	0.933129	-0.03752	0.147469
C	2.441168	0.021841	-0.015167
C	2.837228	0.039228	-1.487947
C	3.192445	1.098066	0.810446
C	4.145049	-0.031462	1.232695
N	3.15461	-1.005682	0.77288
H	0.66871	-0.076229	1.213913
H	0.526447	-0.941941	-0.333904
H	0.446267	0.838415	-0.3111
H	3.931135	0.094129	-1.607185
H	2.395113	0.902899	-2.00992
H	2.482102	-0.874002	-1.9942
H	2.589048	1.483271	1.644591
H	3.618624	1.943758	0.251242
H	5.093711	-0.019173	0.661719
H	4.398904	-0.100802	2.304292
H	3.50689	-1.804606	0.249134
