15
-1471.76
O          2.89120       -1.06015        0.63128
C          2.39315        0.01413        0.32623
N          3.08342        1.14876        0.00225
C          4.52039        1.14815       -0.13678
C          5.02633        2.54993        0.00916
C          5.98613        3.13319       -0.99373
N          4.59406        3.57696       -0.94635
H          1.30368        0.17164        0.28860
H          2.58564        1.93122       -0.40471
H          4.75315        0.72768       -1.12156
H          4.96780        0.49729        0.62200
H          5.09298        2.85985        1.04545
H          6.26585        2.54509       -1.85901
H          6.73353        3.83531       -0.64694
H          4.52567        4.48979       -0.49076
