15
-1520.67
C          0.95351        0.05717        0.04000
C          2.43776       -0.15331        0.00260
C          2.88121       -1.56390       -0.19450
O          2.08222       -2.48705       -0.30923
C          3.32248        0.85471        0.12629
C          4.81409        0.76858        0.10276
O          5.25576       -0.09703        1.13257
H          0.69324        1.11228        0.17530
H          0.50788       -0.50204        0.86920
H          0.49429       -0.27876       -0.89550
H          3.96616       -1.74042       -0.24740
H          2.93392        1.86514        0.24434
H          5.25766        1.75566        0.26672
H          5.17156        0.39680       -0.86231
H          4.93684        0.26953        1.97542
