18
-1756.95
C          1.10116       -0.28267        0.51018
N          2.54291       -0.06646        0.50923
C          2.92368        1.33748        0.24089
C          2.44739        2.27076        1.36262
C          4.46247        1.40957        0.08694
C          4.92436        2.72221       -0.40219
C          5.31088        3.78881       -0.79275
H          0.89987       -1.35619        0.58696
H          0.63575        0.07849       -0.41226
H          0.62011        0.18991        1.37114
H          2.95357       -0.66247       -0.21058
H          2.46538        1.65726       -0.70459
H          2.83350        1.95131        2.33691
H          1.35495        2.30377        1.42290
H          2.77943        3.30007        1.19220
H          4.79682        0.64672       -0.62833
H          4.94945        1.17939        1.04281
H          5.65809        4.73783       -1.13401
