19
-1766.6
C          0.98466       -0.06152        0.01525
C          2.50484       -0.03218        0.01718
C          3.03744        1.40035       -0.00304
C          4.56744        1.42549       -0.00246
C          5.09624        2.85871       -0.02157
N          6.55428        2.86041       -0.03067
H          0.62547       -1.09524        0.03079
H          0.58424        0.42387       -0.88043
H          0.58137        0.45158        0.89403
H          2.87605       -0.58036       -0.85679
H          2.87332       -0.55430        0.90810
H          2.66085        1.94449        0.87137
H          2.66198        1.91918       -0.89319
H          4.94230        0.87980       -0.87787
H          4.94064        0.90277        0.88755
H          4.73810        3.40649        0.85696
H          4.73331        3.38238       -0.91236
H          6.90358        2.39972        0.80867
H          6.89124        3.82137        0.00961
