18

C	0.780125	0.000423	-0.080732
C	2.265689	0.019563	0.165655
C	3.227714	-0.841139	-0.611143
C	2.722546	-1.449548	-1.909668
N	2.526667	-0.35394	-2.865258
C	2.74302	0.936976	-2.203267
C	3.238658	0.652118	-0.793991
H	0.313919	0.940032	0.256849
H	0.301166	-0.824919	0.469448
H	0.532539	-0.126892	-1.145418
H	2.533986	0.147971	1.220769
H	4.032786	-1.349654	-0.073371
H	3.442746	-2.191409	-2.293499
H	1.776904	-1.999354	-1.742556
H	3.177792	-0.454237	-3.634972
H	3.476424	1.550545	-2.752859
H	1.80737	1.526244	-2.176705
H	4.051909	1.26338	-0.392302
