20
-1912.27
C          3.65278       -0.42594       -0.81449
C          2.82159        0.07280        0.36055
C          3.11559        1.53810        0.73418
C          2.08719        2.01843        1.76393
C          4.51246        1.69006        1.28745
C          5.62473        2.23562        0.42421
N          5.05305        3.03505        1.49876
H          3.36944       -1.45319       -1.06291
H          4.72074       -0.42265       -0.58099
H          3.48805        0.19384       -1.70030
H          2.99806       -0.58148        1.22385
H          1.76159       -0.03103        0.09525
H          2.99888        2.15739       -0.16554
H          2.16298        1.44889        2.69704
H          1.06750        1.91079        1.37805
H          2.24002        3.07497        2.00686
H          4.75472        0.96066        2.05204
H          5.39619        2.57135       -0.58118
H          6.63066        1.86384        0.57409
H          5.66918        3.05113        2.31386
