17
-1666.59
O          1.02494        0.02845        0.13376
C          2.44972        0.02617        0.02953
C          2.89980       -1.32010       -0.52801
C          2.54876       -1.44115       -2.00437
O          3.10486       -0.34973       -2.74205
C          2.55420        0.89944       -2.32302
C          2.90281        1.17560       -0.86630
H          0.76662        0.84594        0.59460
H          2.84786        0.15585        1.04226
H          2.43639       -2.14374        0.02483
H          3.98702       -1.39880       -0.41481
H          2.97161       -2.36509       -2.41179
H          1.46417       -1.47800       -2.16418
H          2.98107        1.68013       -2.96022
H          1.46997        0.89749       -2.48776
H          3.99026        1.27921       -0.77586
H          2.44170        2.11845       -0.55380
