15
-1575.68
C          1.04789       -0.00466        0.13042
C          2.38222       -0.02168        0.05372
C          3.27375        1.17611       -0.00837
O          4.41250        0.75831       -0.77250
C          4.58188       -0.64776       -0.53374
C          3.24206       -1.16806       -0.11115
C          2.94119       -2.45419        0.10245
H          0.45650       -0.91331        0.10885
H          0.50476        0.93228        0.19992
H          3.61251        1.47141        0.99106
H          2.81025        2.03416       -0.50323
H          4.93480       -1.11302       -1.45904
H          5.33139       -0.77857        0.25384
H          1.95949       -2.76945        0.43686
H          3.68429       -3.23195       -0.03839
