14

C	1.0629	-0.025939	0.227191
C	2.51565	0.064119	-0.062724
N	3.21032	-0.934881	-0.459804
O	4.503702	-0.557051	-0.699853
C	4.694628	0.77596	-0.22545
C	3.294373	1.362694	-0.112135
O	2.870719	2.167302	-1.183766
H	0.688458	-1.036536	0.018414
H	0.515164	0.70239	-0.390707
H	0.855408	0.221121	1.28096
H	5.333673	1.325849	-0.931154
H	5.187408	0.733943	0.761849
H	3.172208	1.977033	0.792009
H	2.914778	1.637405	-1.989109
