19
-1900.44
C          0.95899        1.72984        1.28493
C          2.44465        1.57094        1.24505
C          3.13809        1.34651        0.11893
C          4.61502        1.19016        0.09269
C          5.47624        2.27576        0.78705
C          6.45207        1.14336        1.17504
C          5.25754        0.17031        1.06694
H          0.70052        2.71265        1.69076
H          0.52000        0.96389        1.93147
H          0.50542        1.64003        0.29274
H          2.95233        1.64840        2.20336
H          2.62253        1.27032       -0.83540
H          4.94920        1.01803       -0.94163
H          5.02150        2.76916        1.65351
H          5.89129        3.04279        0.12704
H          7.23660        0.96298        0.43115
H          6.90953        1.22723        2.16384
H          5.49135       -0.80873        0.63908
H          4.73578        0.02019        2.01887
