14
-1340.55
C          1.10966        0.21619       -0.02866
N          2.34133        0.34900       -0.79678
C          3.35812        0.77810       -0.13493
N          4.61688        0.97950       -0.66081
C          5.76227        0.70317        0.21675
C          5.39386        2.10726       -0.12724
H          0.84190       -0.84169        0.05524
H          0.29910        0.72968       -0.55437
H          1.16649        0.63566        0.98217
H          3.29092        1.02159        0.94243
H          6.58330        0.23531       -0.30918
H          5.51898        0.30819        1.19321
H          4.88509        2.72187        0.60102
H          5.95654        2.62080       -0.89377
