14

C	1.329078	-0.618487	-0.086235
C	2.816516	-0.450399	0.083991
O	3.548534	-1.375003	0.343248
C	3.360213	0.95564	-0.086228
C	4.87113	1.005293	0.10716
C	5.412879	2.348057	-0.052227
N	5.822667	3.422561	-0.182783
H	0.785847	0.011694	0.635152
H	1.056932	-1.670549	0.061478
H	1.018938	-0.291546	-1.091383
H	2.845938	1.62334	0.626098
H	3.075204	1.325812	-1.085901
H	5.366441	0.328719	-0.606665
H	5.136504	0.625347	1.105994
