19
-1781.04
C          0.93869        0.01746        0.15336
C          2.45196       -0.08257       -0.03942
C          2.82905       -0.00349       -1.52079
N          3.17228        0.97828        0.73209
C          4.15364       -0.03521        1.19434
C          3.11948       -1.13940        0.90026
N          3.73552       -2.24459        0.16255
H          0.66056        0.04117        1.21324
H          0.43696       -0.84469       -0.29939
H          0.53759        0.92352       -0.31493
H          3.91340        0.00674       -1.67619
H          2.42622        0.90723       -1.98039
H          2.42086       -0.85870       -2.07060
H          2.62610        1.37174        1.49932
H          5.06884       -0.04577        0.58952
H          4.44353        0.06470        2.24623
H          2.52767       -1.44326        1.77066
H          4.38783       -1.95783       -0.56673
H          3.06019       -2.85859       -0.29023
