14

C	1.020606	-0.003661	0.05057
N	2.448771	0.021986	0.126939
C	3.116955	1.03375	0.93721
C	4.195339	-0.006135	1.283994
C	3.160825	-1.045219	0.820844
H	0.68641	-0.86473	-0.550377
H	0.649322	0.907928	-0.444763
H	0.527122	-0.072343	1.048466
H	2.530233	1.331703	1.834461
H	3.419893	1.950893	0.40282
H	5.06417	0.050091	0.613706
H	4.539147	-0.057475	2.325635
H	3.500012	-1.883633	0.187838
H	2.588445	-1.463944	1.678106
