16
-1568.62
O          1.42805        0.51910       -1.27281
C          2.14683        0.13026       -0.10433
C          3.26205        1.09060        0.16834
N          3.77513        1.94511       -0.90529
C          3.01899        2.58070        0.17488
C          3.77791        3.41725        1.10302
C          3.43767        3.68969        2.36939
H          0.76984       -0.17735       -1.43711
H          2.55205       -0.87292       -0.26842
H          1.45530        0.10085        0.74268
H          3.99819        0.68552        0.85199
H          3.16516        1.82376       -1.72184
H          2.03669        2.95449       -0.09955
H          4.69623        3.85491        0.71602
H          2.53171        3.28709        2.81131
H          4.06421        4.32522        2.98617
