16
-1652.22
C          0.39700        1.36259        0.79339
N          1.31588        0.34472        0.18383
C          0.43437       -0.39656       -0.75408
C         -0.46115        0.71639       -1.29060
C         -0.95551        1.09087        0.10135
C         -1.44572       -0.26497        0.56365
C         -0.57597       -1.16036        0.06530
H          0.76282        2.36881        0.56029
H          0.35302        1.24121        1.88101
H          2.02254        0.83785       -0.36000
H          0.95471       -0.98497       -1.51209
H          0.08920        1.52112       -1.79252
H         -1.25594        0.35796       -1.95722
H         -1.69222        1.89323        0.14193
H         -2.26074       -0.45799        1.24248
H         -0.55702       -2.22157        0.25521
