18

C	1.309167	2.910606	0.110612
C	2.775957	2.645017	0.059761
C	3.336312	1.425624	0.122045
C	4.76518	1.11421	0.055729
C	5.184376	-0.162724	0.068695
C	5.74385	2.259936	-0.046031
N	7.124599	1.840251	0.048105
H	1.050477	3.568525	0.958365
H	0.72869	1.981563	0.210605
H	0.964697	3.430756	-0.800032
H	3.419815	3.527451	-0.037955
H	2.672693	0.556492	0.215718
H	4.470509	-0.987601	0.14191
H	6.246361	-0.400149	-0.017672
H	5.450547	3.02216	0.707921
H	5.590986	2.747892	-1.026069
H	7.337143	1.544218	0.999133
H	7.74696	2.615683	-0.162031
