15
-1454.59
C          1.68223       -0.07634       -0.00864
C          0.77828       -1.20500        0.46688
N         -0.38407       -1.33632       -0.41038
N         -1.46838       -0.55463       -0.16643
C         -1.32352        0.70959        0.08511
O         -0.20825        1.48270        0.08799
C          0.92049        1.05539       -0.68039
H          2.42747       -0.46199       -0.71520
H          2.23213        0.31192        0.85716
H          1.34999       -2.13975        0.46306
H          0.45892       -1.04280        1.50373
H         -0.68728       -2.31421       -0.41849
H         -2.19074        1.32074        0.37899
H          1.58255        1.92048       -0.79365
H          0.59504        0.78419       -1.69211
