14
-1428.21
O          0.58769        1.26602        0.15025
N          1.81297        0.61188       -0.02634
C          2.76976        1.47112        0.11143
C          4.18530        1.07685       -0.02150
C          5.14591        1.99835        0.11919
C          6.54993        1.68062       -0.00117
C          7.51733        2.59535        0.13015
H         -0.05414        0.54237        0.02399
H          2.56795        2.53469        0.33338
H          4.38277        0.03260       -0.23468
H          4.88956        3.03476        0.33154
H          6.82479        0.64814       -0.20872
H          7.30602        3.63985        0.33663
H          8.56096        2.31064        0.03094
