13
-1312.66
C          1.04572        1.16138       -0.19854
N         -0.18132        1.34562        0.56707
N         -1.33857        0.81216        0.12086
C         -1.42856       -0.47248       -0.01285
O         -0.51213       -1.47077        0.14663
C          0.88101       -1.33024        0.13288
C          1.59132       -0.21804       -0.07355
H          1.79393        1.85166        0.20869
H          0.90603        1.42950       -1.25173
H         -0.31752        2.34871        0.70706
H         -2.39396       -0.92901       -0.28330
H          1.32994       -2.30919        0.25039
H          2.67324       -0.30555       -0.12603
