17
-1699.71
C          4.98865       -0.70104        1.29863
O          3.64847       -0.42773        0.90626
C          3.37434        0.83362        0.45774
C          4.20424        1.87601        0.29996
C          3.75473        3.21642       -0.20585
C          4.02931        4.29457        0.80212
C          4.81455        5.35678        0.57923
H          5.03558       -1.74112        1.63464
H          5.28877       -0.06196        2.13554
H          5.67588       -0.58767        0.45396
H          2.31559        0.89515        0.22514
H          5.26188        1.78916        0.52773
H          2.68068        3.21359       -0.42712
H          4.27181        3.42369       -1.15040
H          3.54169        4.19442        1.77028
H          5.31724        5.50684       -0.37098
H          4.96827        6.10449        1.35124
