15

O	0.840066	-0.429956	0.078276
C	2.062038	-0.549313	-0.553762
C	2.324923	0.327663	-1.731597
C	3.061971	0.560803	-0.437623
C	4.516139	0.243491	-0.256779
C	4.844786	-0.198728	1.145762
O	4.030834	-0.360124	2.01602
H	1.007959	-0.524545	1.023648
H	2.472837	-1.57015	-0.601601
H	1.538232	1.041335	-1.986985
H	2.866817	-0.090001	-2.585147
H	2.699221	1.40772	0.154231
H	5.174049	1.096982	-0.506829
H	4.844781	-0.566731	-0.935421
H	5.934587	-0.383677	1.341716
