17

N	1.054456	-0.014024	-0.141727
C	2.487574	0.015448	0.005957
C	3.017791	1.142943	0.892724
N	4.193636	0.583566	1.555415
C	4.402384	-0.788946	1.152243
C	3.005977	-1.22841	0.72388
O	2.930066	-2.40446	-0.029028
H	0.7875	-0.902616	-0.564384
H	0.733123	0.71555	-0.774004
H	3.038611	0.048869	-0.965558
H	2.229541	1.414872	1.619229
H	3.250178	2.05169	0.309642
H	5.020044	1.16515	1.519414
H	5.0894	-0.916296	0.282753
H	4.801529	-1.413125	1.969726
H	2.375335	-1.390999	1.61399
H	3.489644	-2.292942	-0.806831
