16
-1562.89
C          0.82231        0.13188       -0.57710
C          2.19595       -0.07192       -0.00712
C          3.15737       -0.94488       -0.79180
O          3.22871        0.48366       -0.84456
C          2.40811        0.16943        1.49244
C          1.32234        0.50813        2.48574
N          1.88935       -0.83045        2.43647
H          0.80713        0.00789       -1.66534
H          0.45885        1.14043       -0.35370
H          0.12097       -0.59395       -0.15055
H          2.79582       -1.46551       -1.66980
H          3.93277       -1.47020       -0.24805
H          3.39886        0.55033        1.74347
H          0.30103        0.60443        2.14409
H          1.58098        1.11821        3.34186
H          2.55522       -0.97776        3.19715
