11
-1203.34
C          1.12993       -0.01459        0.08081
C          2.45205       -0.00881       -0.11187
O          3.16667       -1.13527       -0.46304
C          4.39771       -0.55370       -0.53586
N          4.56054        0.69916       -0.29263
C          3.32657        1.16607        0.00827
N          3.11504        2.38483        0.31574
H          0.58104        0.88011        0.35039
H          0.56369       -0.93329       -0.03311
H          5.18642       -1.26606       -0.81607
H          2.12595        2.53901        0.51237
