19

C	2.84143	-0.740845	-1.421799
C	2.589263	-0.164264	-0.03947
C	3.115283	1.255028	0.146014
O	2.660542	1.688538	1.407451
C	2.83392	3.05192	1.652199
C	4.615549	1.316599	0.061252
C	5.307076	1.953606	-0.883855
H	2.433655	-1.758857	-1.505723
H	3.917181	-0.789026	-1.651155
H	2.365093	-0.128161	-2.204283
H	3.042977	-0.800275	0.739721
H	1.509818	-0.133409	0.180831
H	2.686635	1.901705	-0.651443
H	2.42496	3.263945	2.650211
H	2.292626	3.676404	0.912871
H	3.897503	3.356784	1.635401
H	5.139882	0.772727	0.858165
H	4.800435	2.504739	-1.6838
H	6.400712	1.945992	-0.903149
