15

C	0.984752	-0.000833	0.007283
C	2.495934	-0.031189	-0.067082
O	2.895914	-1.139812	-0.894113
N	3.294675	-0.681018	-2.114942
C	3.378021	0.591198	-2.101378
C	3.114315	1.206276	-0.753261
N	4.333953	1.768063	-0.21827
H	0.642589	0.809186	0.669912
H	0.597102	-0.955494	0.389531
H	0.558095	0.163727	-0.994467
H	2.944357	-0.192417	0.926936
H	3.710106	1.127454	-2.991937
H	2.369505	2.018179	-0.821661
H	5.038827	1.04421	-0.091188
H	4.170895	2.1991	0.688806
