12
-1254.55
C          0.91118        0.07342       -0.00779
C          2.39949        0.00632       -0.00079
C          3.22914        1.05851        0.00373
C          4.64013        0.62677        0.01135
O          5.58452        1.39767        0.01670
N          4.70876       -0.74199        0.01172
S          3.21698       -1.53003        0.00345
H          0.55660        1.10977       -0.00128
H          0.49664       -0.42467        0.87494
H          0.50589       -0.41081       -0.90243
H          2.96442        2.10219        0.00244
H          5.60119       -1.21690        0.01719
