16
-1580.33
C          1.84451        0.17370       -0.79409
N          1.83178       -0.02578        0.64792
C          0.53860        0.05232       -0.03940
C         -0.33725        1.23461        0.20346
C         -1.70125        0.70908       -0.21485
O         -1.67884       -0.69753        0.07826
C         -0.34211       -1.15024       -0.20067
H          2.16553        1.15225       -1.13040
H          2.19364       -0.65842       -1.39282
H          2.06072       -0.99034        0.89519
H         -0.34514        1.48366        1.27080
H         -0.05851        2.12776       -0.36381
H         -2.52243        1.18994        0.32425
H         -1.86404        0.83064       -1.29180
H         -0.31742       -1.53029       -1.22776
H         -0.09761       -1.96174        0.49073
