15
-1509.52
C          1.05756        1.19130       -0.09709
N         -0.24472        1.28771        0.57262
N         -1.33297        0.85389       -0.10626
C         -1.43720       -0.44017       -0.22158
C         -0.51636       -1.49803        0.34845
C          0.93510       -1.35386        0.00339
C          1.59659       -0.20604       -0.21205
H          1.77662        1.77594        0.48920
H          1.00876        1.64941       -1.09119
H         -0.38755        2.27289        0.80550
H         -2.32773       -0.81577       -0.75384
H         -0.86397       -2.45045       -0.07222
H         -0.65805       -1.56044        1.43316
H          1.49205       -2.28610       -0.07577
H          2.65051       -0.26548       -0.47545
