12
-1197.04
C         -0.37217        1.18165        0.10750
N         -1.24679       -0.00167       -0.00672
C         -0.37148       -1.18513        0.09359
C          1.01274       -0.66673       -0.03977
C          1.01229        0.66595       -0.03212
H         -0.51105        1.65975        1.08285
H         -0.60785        1.90803       -0.67714
H         -1.64793        0.00408       -0.94363
H         -0.60652       -1.90234       -0.69921
H         -0.50958       -1.67438        1.06302
H          1.88960       -1.29249       -0.10373
H          1.88825        1.29352       -0.08879
