14

C	0.990434	-0.056562	0.031547
O	2.382204	-0.011641	0.031878
C	2.880878	1.294926	-0.00057
C	4.339073	1.298312	0.000429
C	5.550214	1.322368	0.000929
C	7.003417	1.348877	2.8e-05
H	0.688038	-1.112459	0.056939
H	0.555292	0.410959	-0.875824
H	0.553361	0.454587	0.914033
H	2.514212	1.878591	0.872589
H	2.515229	1.833572	-0.902572
H	7.378189	2.384311	-0.001899
H	7.411799	0.843589	-0.889373
H	7.41249	0.84696	0.891027
