14
-1437.89
C          2.94116       -1.18281        0.47906
N          2.38743        0.08005        0.03804
C          3.10480        1.22952        0.00808
C          2.51143        2.45821       -0.18138
S          3.64845        3.73815       -0.17677
C          4.94637        2.64969        0.06894
C          4.51657        1.34236        0.14783
H          2.18341       -1.96662        0.38746
H          3.24773       -1.13010        1.52848
H          3.79763       -1.47798       -0.13531
H          1.37094        0.12241        0.06760
H          1.46314        2.67658       -0.32312
H          5.95950        3.02022        0.14198
H          5.19742        0.51581        0.29710
