14

C	2.850123	-1.251857	0.410302
N	2.311732	-0.001266	-0.04824
C	3.050785	1.15566	0.004029
C	2.630383	2.452723	-0.209352
C	3.693644	3.392297	-0.104064
C	4.900923	2.821505	0.1857
S	4.756537	1.105717	0.348211
H	2.10531	-2.046363	0.265022
H	3.149782	-1.241384	1.477729
H	3.740033	-1.524381	-0.181593
H	1.320141	0.13702	0.098352
H	1.597794	2.712026	-0.4469
H	3.56368	4.466573	-0.247825
H	5.872283	3.296112	0.31081
