16

C	0.85796	0.066975	-0.020552
C	2.346474	0.009937	0.078129
C	3.172095	1.04497	-0.108688
C	4.653237	1.010571	-0.042653
C	5.439974	-0.259066	-0.173963
C	5.4689	0.745952	-1.285799
H	0.481224	-0.619437	-0.797912
H	0.502544	1.07999	-0.26156
H	0.38278	-0.24584	0.924802
H	2.780025	-0.966079	0.330003
H	2.736717	2.026235	-0.343239
H	5.082476	1.767815	0.625942
H	4.895108	-1.190686	-0.347233
H	6.332449	-0.376442	0.446084
H	6.379251	1.330222	-1.444955
H	4.918176	0.503772	-2.199306
