13

C	1.250924	0.201341	0.004341
C	2.715336	-0.064991	-0.0005
N	3.639251	0.852751	-0.007406
C	4.875814	0.265723	-0.008295
C	6.101422	1.113069	-0.016249
N	4.954842	-1.04453	-0.00259
S	3.412008	-1.649422	0.004536
H	0.662445	-0.725261	-0.007577
H	0.980052	0.806579	-0.873995
H	0.980904	0.781696	0.899777
H	6.999094	0.484056	-0.011304
H	6.110284	1.774392	0.863491
H	6.109637	1.758438	-0.90781
