15
-1546.75
O          3.11483       -0.71647        0.95895
C          2.46558       -0.01040       -0.08778
C          2.73135        1.45635        0.08977
C          1.74517        2.32855        0.36908
C          4.16874        1.89938       -0.04183
C          4.51938        2.08235       -1.45967
C          4.80873        2.24857       -2.61303
H          2.89803       -1.65548        0.83625
H          1.39518       -0.23802       -0.04172
H          2.84913       -0.36425       -1.04999
H          0.71353        2.00791        0.47451
H          1.94742        3.38781        0.49749
H          4.84026        1.17188        0.42765
H          4.32660        2.84392        0.49375
H          5.06379        2.40517       -3.63569
