16

C	1.015353	0.014451	0.148367
C	2.502854	0.297595	0.059425
C	2.91293	1.743927	0.026986
C	2.05994	2.774366	-0.001513
C	4.404095	1.975846	0.052752
O	5.026978	1.382296	1.16666
H	0.824096	-1.06825	0.182238
H	0.471275	0.41918	-0.719854
H	0.573985	0.459282	1.054463
H	2.928083	-0.190592	-0.838103
H	3.040244	-0.172021	0.90158
H	0.976017	2.636122	-0.022137
H	2.425903	3.805558	-0.016288
H	4.616261	3.06067	-0.01219
H	4.864794	1.50528	-0.832832
H	4.639023	1.77485	1.956487
