15

C	1.824641	-0.385325	-1.22825
O	2.137534	0.183306	0.008467
C	3.048873	1.227191	-0.071608
C	2.533646	2.586915	-0.624032
C	3.132238	3.231415	0.621161
O	3.421102	4.354131	0.912444
C	3.340095	1.879272	1.289825
H	1.107561	-1.199123	-1.052049
H	2.719796	-0.805564	-1.728006
H	1.361659	0.34615	-1.920133
H	3.976315	0.909583	-0.589368
H	1.431326	2.626092	-0.591051
H	2.886437	2.958835	-1.59696
H	4.306002	1.697434	1.782979
H	2.522625	1.655227	1.995592
