21

C	0.923332	-0.070887	-0.009175
C	2.454154	-0.127345	-0.005614
C	2.918982	-0.878464	1.245976
C	2.942919	-0.883395	-1.245573
C	3.05436	1.290182	0.040274
C	2.746057	2.220507	-1.124403
O	3.403228	3.455445	-0.999169
H	0.52987	0.413616	-0.91585
H	0.544902	0.487386	0.86271
H	0.494656	-1.085005	0.03217
H	2.577832	-0.373545	2.16429
H	4.018242	-0.943069	1.286193
H	2.520181	-1.905037	1.260407
H	2.580349	-0.425564	-2.178727
H	2.58239	-1.923997	-1.231404
H	4.043856	-0.909334	-1.287907
H	4.152883	1.217772	0.120889
H	2.710799	1.780049	0.971846
H	1.651069	2.353837	-1.235136
H	3.102738	1.781676	-2.069038
H	3.104581	3.866864	-0.181521
