16

C	0.802378	0.050004	-0.152225
C	2.289827	0.019723	-0.239309
C	3.124859	0.857501	0.39826
C	4.572276	0.810744	0.299906
C	5.407307	1.648529	0.937472
C	6.894759	1.61826	0.850363
H	0.4036	-0.906287	0.228186
H	0.345474	0.199091	-1.145597
H	0.447401	0.853841	0.509765
H	2.726438	-0.757649	-0.880982
H	2.701445	1.639354	1.043108
H	4.995716	0.028893	-0.344935
H	4.970717	2.425909	1.579151
H	7.249745	0.814332	0.188488
H	7.351689	1.469344	1.843747
H	7.293508	2.574501	0.469791
