15
-1489.8
C          3.90591       -1.10544        0.00095
O          2.90308       -0.09745       -0.06495
C          3.32455        1.20187       -0.10169
C          4.57381        1.69296       -0.09119
C          4.92203        3.11733       -0.13186
C          4.90347        3.90361        1.15536
O          6.12722        3.61717        0.46959
H          3.40473       -2.07777        0.02790
H          4.50057       -1.00655        0.91497
H          4.54587       -1.07942       -0.88676
H          2.45449        1.84922       -0.14283
H          5.42469        1.01986       -0.05270
H          4.59655        3.62651       -1.03398
H          4.72546        3.38782        2.09051
H          4.54045        4.92291        1.12662
