15
-1505.56
C          4.27807       -0.41885        1.52625
O          3.94490        0.92235        1.86365
C          3.16600        1.56158        0.85864
C          2.51346        2.80880        1.40521
C          2.65888        3.31359        2.64121
C          4.02645        1.98468       -0.32164
O          3.65269        1.93263       -1.49397
H          4.80444       -0.86438        2.37462
H          4.94245       -0.44255        0.65645
H          3.37649       -1.00785        1.32891
H          2.37137        0.88603        0.50757
H          1.86288        3.33845        0.70889
H          3.28723        2.83011        3.38623
H          2.14170        4.22151        2.93658
H          5.01075        2.40858       -0.05854
