15
-1484.5
C          0.80285        1.40618       -0.58979
C         -0.33098        0.91926        0.27241
C         -1.37063       -0.02322       -0.23928
N         -0.75904       -1.35027       -0.02918
C          0.69382       -1.19273       -0.22909
C          0.96347        0.18562        0.27884
H          0.73316        1.27335       -1.66316
H          1.31460        2.31248       -0.28780
H         -0.62286        1.47556        1.15133
H         -2.31286        0.05947        0.31217
H         -1.57210        0.13778       -1.30431
H         -0.90272       -1.59320        0.95084
H          1.24455       -1.95426        0.33022
H          0.94377       -1.28709       -1.29087
H          1.58491        0.22667        1.16119
