13
-1306.23
C          1.00010       -0.05443        0.00330
C          2.52000        0.00000        0.00000
C          3.00202        1.36117        0.00000
C          3.39930        2.48307        0.00000
C          3.88132        3.84424        0.00000
H          0.65801       -1.09369        0.00293
H          0.58500        0.44108       -0.88045
H          0.58888        0.43925        0.88978
H          2.89561       -0.53271       -0.88086
H          2.89947       -0.53410        0.87836
H          3.08759        4.54329       -0.28088
H          4.70476        3.97071       -0.70959
H          4.24614        4.13310        0.99047
