15

C	1.062862	-0.269912	0.062816
C	2.574752	-0.25045	-0.05537
S	3.139379	1.457382	-0.069772
O	2.683495	2.060816	-1.322539
O	2.788579	2.048879	1.220274
C	4.912449	1.326378	-0.125111
C	5.565165	1.72575	-1.211853
H	0.696269	-1.306111	0.077488
H	0.603777	0.252477	-0.788586
H	0.743895	0.228775	0.989134
H	2.937925	-0.700883	-0.991273
H	3.069678	-0.736442	0.799477
H	5.377559	0.968717	0.798205
H	5.008087	2.092409	-2.079812
H	6.657849	1.710495	-1.255957
