14
-1459.17
C          0.96785       -0.18341       -0.01231
C          2.46783        0.05897        0.02214
C          2.78614        1.50502        0.00487
C          3.04656        2.44028        0.97688
C          3.26782        3.62602        0.25553
N          3.15472        3.44207       -1.06148
O          2.85042        2.09908       -1.21889
H          0.75637       -1.25728        0.00286
H          0.51848        0.23884       -0.91787
H          0.47241        0.27284        0.85177
H          2.93841       -0.43505       -0.83561
H          2.88936       -0.39979        0.92383
H          3.07152        2.28795        2.04491
H          3.50557        4.61310        0.62540
