15

C	2.138209	-0.396772	-1.600738
O	2.259084	0.110855	-0.30318
C	3.01297	1.259404	-0.220009
C	2.420029	2.63962	-0.621163
C	3.052108	3.269402	0.640318
C	3.216156	1.848286	1.178881
O	3.301082	1.373958	2.270117
H	1.547023	-1.32096	-1.544282
H	3.125758	-0.635426	-2.042385
H	1.621349	0.309172	-2.279838
H	4.014317	1.136544	-0.692405
H	1.322621	2.606365	-0.549247
H	2.715801	3.051095	-1.595108
H	4.026377	3.749027	0.453174
H	2.438946	3.94475	1.254754
