17
-1631.25
N          0.93232       -0.10310        0.34068
C          2.32047        0.15319       -0.05611
C          2.97514        1.16808        0.90361
N          4.17376        0.28745        0.95143
C          3.28734       -0.86641        0.61348
C          3.95817       -1.81687       -0.30760
C          5.00186       -2.54747        0.10582
H          0.53875       -0.94604       -0.07507
H          0.29325        0.65527        0.10800
H          2.47826        0.35405       -1.12141
H          2.49810        1.28892        1.88437
H          3.16014        2.16151        0.48376
H          4.85433        0.49066        0.21994
H          2.88871       -1.36603        1.50794
H          3.57344       -1.93273       -1.31601
H          5.39469       -2.45442        1.11477
H          5.48692       -3.25374       -0.55969
