16
-1553.16
C          0.95879       -0.01389        0.06010
C          2.47598        0.00329       -0.03185
O          2.85102        0.04083       -1.42717
C          3.16552        1.06193        0.87426
C          4.21090       -0.00731        1.23920
C          3.18690       -1.08101        0.82288
H          0.61565       -0.04218        1.10011
H          0.54903       -0.89199       -0.44995
H          0.53062        0.87899       -0.40783
H          3.82306        0.04900       -1.44034
H          2.56191        1.39680        1.72605
H          3.56492        1.94120        0.36091
H          5.10422        0.01638        0.60476
H          4.52115       -0.02949        2.28685
H          3.60544       -1.92645        0.26945
H          2.59188       -1.46836        1.65833
