13

C	0.966601	-0.04553	-6e-05
C	2.181063	0.010746	6.9e-05
C	3.595668	0.040435	0.000396
C	4.408508	1.133973	-0.004803
C	5.79761	0.702824	-0.002181
C	5.848021	-0.648516	0.004585
C	4.458727	-1.19287	0.006806
H	-0.106738	-0.090831	-0.000205
H	4.067535	2.170006	-0.010152
H	6.654424	1.378653	-0.00527
H	6.746377	-1.266881	0.008001
H	4.254224	-1.831544	-0.871982
H	4.25366	-1.822885	0.891696
