15
-1437.43
N          1.40026        1.54193        0.80122
N          2.66234        1.87605        0.44323
C          3.52113        0.93442        0.65057
O          4.83849        1.03676        0.36236
C          5.25988        2.29538       -0.17481
C          6.73667        2.28431       -0.46278
C          7.58495        1.26192       -0.28076
H          0.80114        2.36930        0.73948
H          0.99496        0.87507        0.13894
H          3.29704       -0.05746        1.07818
H          5.05017        3.09189        0.54896
H          4.72375        2.49629       -1.11007
H          7.13329        3.21719       -0.85835
H          7.25126        0.30604        0.10954
H          8.63691        1.36291       -0.52332
