18
-1750.53
C          3.06159       -1.16739       -0.49671
C          2.47283        0.06225        0.17542
C          3.44084        1.20656        0.16825
C          3.53332        2.12224       -1.02704
C          2.92877        2.62361        0.25923
C          3.65268        3.63021        1.08655
H          2.34657       -1.99547       -0.47149
H          3.97791       -1.49038        0.00863
H          3.31128       -0.96122       -1.54279
H          2.21732       -0.17963        1.21320
H          1.53926        0.33642       -0.32983
H          4.35954        0.96491        0.69288
H          2.86733        1.95174       -1.86569
H          4.51630        2.47884       -1.31443
H          1.85653        2.78546        0.28089
H          4.73689        3.48021        1.06309
H          3.32260        3.56759        2.12790
H          3.44050        4.63960        0.72128
