17

C	1.748016	-0.144171	-0.017352
C	0.8658	-1.271146	0.513724
C	-0.408231	-1.486234	-0.300166
C	-1.47217	-0.435527	-0.070806
N	-1.36258	0.784816	0.296684
N	-0.159175	1.386101	0.442343
C	0.928686	1.060608	-0.464783
H	2.348489	-0.494463	-0.874798
H	2.46326	0.156397	0.765444
H	1.44463	-2.207741	0.554681
H	0.5759	-1.041899	1.55235
H	-0.858453	-2.45333	-0.021608
H	-0.174524	-1.583723	-1.377657
H	-2.512357	-0.776294	-0.158099
H	-0.307607	2.381841	0.546706
H	1.575273	1.948155	-0.546498
H	0.514034	0.88194	-1.478106
