18
-1803.68
C          0.82219        0.24261        0.01040
C          2.35087        0.03871        0.01379
C          2.73240       -0.75218        1.27893
C          2.73450       -0.77813       -1.23409
C          3.02739        1.43282        0.00000
C          4.47076        1.39045        0.00092
N          5.62128        1.35669        0.00166
H          0.49878        0.79161       -0.88076
H          0.49730        0.81013        0.88932
H          0.29304       -0.71699        0.01998
H          2.48662       -0.18796        2.18531
H          3.80267       -0.98218        1.30592
H          2.19342       -1.70565        1.32482
H          2.49054       -0.23263       -2.15238
H          2.19535       -1.73210       -1.26126
H          3.80477       -1.00893       -1.25438
H          2.68688        2.00879        0.87025
H          2.68757        1.99109       -0.88198
