15

C	1.068322	-0.190528	-0.422935
C	2.526341	-0.323591	-0.061237
O	3.084249	-1.394312	-0.026015
C	3.261013	0.962386	0.258315
C	4.741	0.770323	0.427191
C	5.678352	1.02905	-0.664132
O	5.526278	1.943122	0.400432
H	0.531878	0.429545	0.31192
H	0.609574	-1.184715	-0.488103
H	0.977546	0.31675	-1.397421
H	2.826432	1.376553	1.187035
H	3.056845	1.718455	-0.518771
H	5.030365	0.031226	1.186237
H	5.291893	1.360639	-1.637781
H	6.632442	0.488176	-0.702545
