15

C	0.986459	-0.127035	-0.080013
C	2.495073	-0.018824	0.069995
C	3.017416	1.42771	0.02033
C	2.503864	2.308904	1.161958
C	4.482474	1.429483	-0.002618
N	5.639972	1.423396	-0.017012
H	0.675213	-1.181203	-0.113311
H	0.640844	0.350005	-1.011484
H	0.449279	0.345153	0.755957
H	2.989468	-0.594187	-0.729156
H	2.819495	-0.476175	1.020434
H	2.698645	1.874075	-0.939927
H	2.777495	1.878129	2.137383
H	1.40939	2.397848	1.116783
H	2.928703	3.320631	1.105142
