15
-1495.74
O          2.65967       -1.14485        0.39498
C          2.36149        0.03280       -0.35967
C          2.97924        1.25127        0.33854
O          2.46430        1.30020        1.67901
C          4.51084        1.20227        0.40776
C          5.13789        1.30156       -0.91860
C          5.65653        1.37483       -2.00094
H          2.29150       -1.89565       -0.10426
H          1.27124        0.13039       -0.38614
H          2.73432       -0.08920       -1.38064
H          2.65526        2.16614       -0.17046
H          2.51488        0.37777        2.00305
H          4.84135        0.28927        0.91742
H          4.86359        2.02853        1.03812
H          6.12224        1.43693       -2.95676
