13

N	0.893726	-0.106443	0.278681
C	2.150139	-0.055988	0.068418
C	2.991701	1.194812	-0.124317
O	4.272395	1.106241	0.458915
C	4.935135	-0.043981	0.160367
C	4.274882	-1.176701	-0.11891
N	2.88355	-1.20151	-0.09605
H	0.504246	0.834474	0.341244
H	2.486997	2.05564	0.333299
H	3.085847	1.381019	-1.213984
H	6.02204	0.038934	0.190063
H	4.790991	-2.102969	-0.367513
H	2.379339	-2.077309	-0.041683
