15
-1588.32
C          1.14292       -0.47706        0.05209
C          2.63445       -0.26754        0.04452
O          3.41449       -1.21435        0.11417
C          3.11464        1.14182       -0.00814
C          4.42759        1.40963       -0.01166
C          4.95214        2.75445       -0.05627
C          6.26286        3.02125       -0.05937
H          0.63023        0.34544       -0.45287
H          0.79289       -0.55060        1.08413
H          0.90675       -1.39901       -0.48635
H          2.36389        1.92156       -0.03861
H          5.14716        0.59229        0.02168
H          4.24595        3.58227       -0.08748
H          7.01251        2.23615       -0.02884
H          6.61837        4.04701       -0.09334
