12

C	1.113906	0.074227	-0.005934
S	2.89082	-0.076208	-0.022041
O	3.311298	-0.661379	1.240933
O	3.290465	-0.636223	-1.303066
C	3.425051	1.676673	-0.009052
C	4.871498	1.747448	-0.020385
N	6.025946	1.810995	-0.029339
H	0.77809	0.597547	-0.909952
H	0.793252	0.579947	0.913482
H	0.751516	-0.962837	-0.012873
H	3.021354	2.143259	0.902222
H	3.006275	2.161401	-0.903925
