12
-1316.09
C          0.96618       -0.04003       -0.00000
C          2.30287       -0.00936       -0.00000
C          3.01704        1.21763        0.00000
C          3.61212        2.24834        0.00000
C          4.31512        3.46597        0.00000
C          3.68148        4.64342       -0.00000
H          0.43413       -0.98556       -0.00000
H          0.37413        0.86996       -0.00000
H          2.87261       -0.93364        0.00000
H          5.40052        3.43284        0.00000
H          2.59759        4.70908        0.00000
H          4.24120        5.57280        0.00000
