14
-1407.59
O          1.08538       -0.07419        0.14501
C          2.47646        0.08737       -0.09181
C          2.85846       -0.49401       -1.42447
C          2.03623       -1.06663       -2.31579
C          2.77762        1.55585       -0.03450
C          3.62666        2.13183        0.82841
H          0.88908        0.41335        0.96219
H          3.01168       -0.45871        0.69346
H          3.91798       -0.44276       -1.66705
H          0.96966       -1.15155       -2.12658
H          2.41431       -1.46216       -3.25239
H          2.25415        2.18055       -0.75608
H          4.17487        1.55360        1.56541
H          3.79356        3.20471        0.80699
