17
-1631.9
N          1.05808        0.23586       -0.35819
C          2.47818       -0.00969       -0.09139
C          3.19976       -1.03705       -0.90669
C          3.51824        0.42185       -1.10077
N          4.80745        0.93798       -0.60188
C          5.81143        0.90662       -1.66170
C          5.16853        2.19955       -1.23914
H          0.79668        1.16302       -0.02259
H          0.48284       -0.42270        0.16664
H          2.76090        0.06196        0.95754
H          2.66158       -1.54094       -1.70036
H          3.93166       -1.65867       -0.40394
H          3.13059        0.86595       -2.01776
H          5.54314        0.47793       -2.61958
H          6.82601        0.71120       -1.33722
H          5.75049        2.88104       -0.63123
H          4.46192        2.67519       -1.90774
