15
-1477.71
C          1.15375       -0.01452        0.33191
N          2.58878       -0.05910        0.35270
C          3.46273        1.03661       -0.11323
C          4.44699       -0.04792       -0.61874
N          4.72298        0.15696       -2.05547
C          3.27466       -1.02758       -0.32580
O          2.96303       -2.14757       -0.65868
H          0.75393       -0.99854        0.59227
H          0.81514        0.24366       -0.67639
H          0.80785        0.73310        1.04883
H          3.83631        1.65050        0.71168
H          2.98169        1.67378       -0.86299
H          5.33361       -0.20518        0.00214
H          3.87068        0.26235       -2.60986
H          5.17917       -0.66075       -2.46611
