19

C	2.02047	-0.670871	1.215562
C	2.78676	-0.285824	-0.048094
C	3.267168	1.130812	-0.019649
C	4.529782	1.58457	-0.079452
C	5.760987	0.73469	-0.180927
C	4.800187	3.067399	-0.034861
O	5.644882	3.435534	1.03074
H	1.632597	-1.699012	1.152248
H	1.162559	-0.000175	1.381835
H	2.667697	-0.605794	2.10419
H	2.122012	-0.413801	-0.922209
H	3.625591	-0.981348	-0.20396
H	2.471243	1.883963	0.069749
H	5.571857	-0.333228	-0.008488
H	6.507533	1.084201	0.548691
H	6.222166	0.842193	-1.178377
H	3.842356	3.623413	-0.01491
H	5.330372	3.376012	-0.953064
H	5.210552	3.158786	1.845265
