17
-1617.04
C          1.77616       -1.32915        0.49564
C          3.27303       -1.08274        0.60725
N          3.64206        0.08734       -0.18645
C          5.07188        0.36050       -0.08295
C          5.40329        1.54547       -0.93587
C          5.96189        2.67714       -0.48583
H          1.49465       -2.20934        1.08245
H          1.48086       -1.50813       -0.54358
H          1.20377       -0.47538        0.87344
H          3.80695       -1.96967        0.24718
H          3.53357       -0.93201        1.66147
H          3.13068        0.90204        0.15203
H          5.65011       -0.49674       -0.44692
H          5.35566        0.54040        0.96089
H          5.17300        1.45514       -1.99569
H          6.21278        2.81403        0.56111
H          6.17695        3.49566       -1.16584
