13
-1206.05
O          2.98185       -0.82344        0.97825
C          2.39215        0.04360       -0.00465
S          2.95904        1.75931       -0.01743
O          2.53392        2.34968       -1.27500
O          2.56813        2.37490        1.23871
C          4.68822        1.56349       -0.01140
C          5.37648        1.51378       -1.16001
H          2.45324       -1.63980        0.98032
H          1.31072        0.07481        0.15790
H          2.59663       -0.37315       -0.99536
H          5.16531        1.48349        0.95524
H          4.89344        1.60499       -2.12889
H          6.45463        1.39518       -1.15024
