16
-1581.72
C          0.98297        0.10242        0.21919
C          2.46065       -0.10028       -0.09362
N          2.75782       -1.48319       -0.52493
C          2.77356       -1.52266       -1.99770
C          3.16187       -0.14041       -2.39220
O          2.11433        0.83554       -2.39889
C          2.94174        0.74726       -1.23025
H          0.78665        1.14737        0.48219
H          0.67353       -0.52440        1.06232
H          0.34373       -0.14620       -0.63543
H          3.04898        0.11438        0.80513
H          2.05968       -2.13157       -0.16756
H          3.49597       -2.26545       -2.34704
H          1.78273       -1.77670       -2.38999
H          4.02549       -0.02991       -3.02524
H          3.63885        1.53333       -0.99294
