17

C	1.737904	-0.586496	-1.160429
C	2.4429	-0.065232	-0.155595
C	3.048615	1.302697	-0.13779
C	4.56371	1.277974	0.05182
C	5.17986	2.663306	0.099743
C	6.666823	2.671707	0.313848
O	7.343233	1.688712	0.456871
H	1.328324	-1.59851	-1.108557
H	1.541157	-0.016794	-2.074983
H	2.6201	-0.675808	0.740266
H	2.596776	1.886946	0.686245
H	2.792408	1.83609	-1.06985
H	5.032988	0.698192	-0.759752
H	4.820329	0.738027	0.979093
H	4.732997	3.282911	0.901459
H	4.98023	3.234711	-0.82725
H	7.132084	3.693596	0.335591
