19
-1891.72
C          1.01046       -0.11101       -0.02975
C          2.53097       -0.11670        0.01135
C          3.09501        1.30855        0.02119
C          4.63327        1.34618       -0.00367
C          5.12329        2.78393       -0.18603
C          5.20641        0.78166        1.23549
C          5.67352        0.31840        2.23943
H          0.62767       -1.13640       -0.02655
H          0.64409        0.38538       -0.93395
H          0.59660        0.40888        0.84019
H          2.91165       -0.66159       -0.86026
H          2.85582       -0.66254        0.90397
H          2.71870        1.84184        0.90421
H          2.71061        1.84188       -0.85800
H          4.98860        0.75680       -0.85832
H          4.79632        3.42677        0.63954
H          4.74173        3.21083       -1.11964
H          6.21795        2.82367       -0.22264
H          6.08679       -0.09519        3.13088
