14
-1380.38
C          0.19123       -0.31815       -0.19731
C          1.62200       -0.82538       -0.17552
C          2.61741        0.30149        0.07917
O          3.95268       -0.22380        0.13262
C          4.58891       -0.33003       -1.06013
O          4.14224       -0.03655       -2.15701
H         -0.50164       -1.14500       -0.38177
H          0.05133        0.42519       -0.98856
H         -0.07621        0.14256        0.75890
H          1.85089       -1.32096       -1.12628
H          1.73329       -1.59432        0.59868
H          2.41958        0.76363        1.05250
H          2.53605        1.09458       -0.67341
H          5.59815       -0.73535       -0.89024
