17
-1650.84
C          0.99754        0.04969        0.13670
C          2.49021       -0.11049       -0.05345
O          3.22912        0.93883        0.63192
C          4.16579       -0.04449        1.15638
C          5.49756        0.05962        0.43472
C          3.19931       -1.19356        0.78495
O          3.72560       -2.34973        0.09329
H          0.46101       -0.78140       -0.33172
H          0.64666        0.97789       -0.32589
H          0.72416        0.07683        1.19725
H          2.75852       -0.12309       -1.11753
H          4.28647        0.07376        2.23880
H          5.37420        0.04519       -0.65316
H          6.15588       -0.77131        0.71287
H          6.00571        0.99357        0.70040
H          2.61132       -1.52538        1.64930
H          4.18153       -2.00255       -0.69365
