14
-1460.91
C          1.04902       -0.15994        0.18892
C          2.52880        0.05345       -0.12476
O          2.83263       -0.62550       -1.34595
C          2.91114        1.51900       -0.20004
C          3.38277        2.12507       -1.30627
C          2.79615        2.28529        1.00292
N          2.69069        2.90128        1.98005
H          0.77653        0.24617        1.16800
H          0.80961       -1.22911        0.18127
H          0.41280        0.30960       -0.57022
H          3.13276       -0.42941        0.65250
H          2.13907       -0.40263       -1.99005
H          3.52579        1.58779       -2.23846
H          3.66197        3.17608       -1.30648
