12
-1207.59
C          1.87334       -0.07769       -1.28556
O          2.44281        0.29555       -0.03353
N          3.19063        1.48097       -0.22371
C          4.54874        1.40180       -0.04512
O          5.23217        2.39584        0.17665
C          5.19129        0.11223       -0.17581
C          5.72822       -0.95827       -0.29158
H          1.29305       -0.99246       -1.13854
H          2.65852       -0.27634       -2.02183
H          1.20395        0.70839       -1.64871
H          2.76945        2.32720        0.14138
H          6.20520       -1.90406       -0.39313
