18

C	0.765145	-0.555663	0.036668
N	2.09526	-0.220705	-0.404139
C	2.757283	-1.335715	-1.03606
C	2.132184	0.986055	-1.193681
C	3.522596	1.551621	-1.32653
C	4.324054	1.391795	-2.542696
O	3.663121	2.602936	-2.255448
H	0.324488	0.286703	0.592036
H	0.799133	-1.423529	0.714125
H	0.07262	-0.808425	-0.79891
H	2.767816	-2.201764	-0.356404
H	3.802143	-1.085436	-1.269779
H	2.266112	-1.654793	-1.984548
H	1.512291	1.748618	-0.692911
H	1.702725	0.856732	-2.215612
H	4.048263	1.693852	-0.370293
H	3.913623	0.810896	-3.380513
H	5.420585	1.416422	-2.483535
