11

C	0.980219	-0.075296	0.006281
N	2.410363	0.105057	-0.001359
C	3.075009	1.289818	0.000982
O	4.285937	1.381064	-0.00281
C	2.211637	2.474026	0.008015
C	1.540825	3.482823	0.013877
H	0.759804	-1.150513	-0.009763
H	0.500873	0.382163	-0.874379
H	0.512544	0.353589	0.907608
H	3.018587	-0.705421	-0.004623
H	0.961332	4.38862	0.01911
