14
-1390.23
O          0.58613        0.03552        0.18785
C          1.96742        0.05284       -0.14834
C          2.44376        1.43889       -0.57102
O          1.66737        2.38689       -0.69348
N          3.81567        1.47627       -0.81063
C          4.59365        2.61209       -0.40470
C          4.34593        2.32659       -1.83912
H          0.20468        0.85292       -0.19249
H          2.12994       -0.64715       -0.97355
H          2.53595       -0.27677        0.72591
H          5.54728        2.34838        0.02891
H          4.04251        3.40896        0.07662
H          3.62168        2.92626       -2.37540
H          5.12242        1.85962       -2.42864
