21

N	0.795614	1.188635	1.459648
C	2.074744	0.893441	0.843268
C	2.925605	2.147397	0.725457
C	4.256086	1.919802	0.023289
C	5.118968	3.169815	-0.061114
C	6.436421	2.954775	-0.788447
N	7.241597	4.16106	-0.773363
H	0.224557	0.34873	1.521223
H	0.933881	1.507392	2.41755
H	1.886621	0.495888	-0.169982
H	2.668271	0.111033	1.36781
H	3.111554	2.553543	1.73753
H	2.338531	2.916832	0.195852
H	4.069043	1.531539	-0.994819
H	4.818161	1.124791	0.546675
H	5.339056	3.553182	0.949873
H	4.551574	3.970845	-0.57083
H	6.219368	2.559314	-1.806367
H	6.999768	2.157019	-0.272253
H	6.772237	4.901196	-1.293105
H	8.131001	4.006673	-1.242496
