11

O	0.975945	-0.013905	0.246487
S	2.414612	0.027642	0.137473
O	3.26283	0.269792	1.279546
C	3.035989	-1.345045	-0.878248
C	3.468716	-0.678689	-2.14094
C	3.303948	0.648296	-2.118945
O	2.782821	1.219317	-1.004108
H	2.197914	-2.050301	-0.989979
H	3.847652	-1.816063	-0.302222
H	3.877611	-1.224238	-2.990148
H	3.542112	1.362644	-2.908846
