12
-1328.91
C          0.98943       -0.26919        0.14453
C          2.46495       -0.02171        0.13920
C          3.13902        1.13799        0.00000
C          2.44804        2.44380       -0.14310
O          3.03984        3.50120       -0.32506
C          4.54502        1.13799        0.00000
N          5.69603        1.13799        0.00000
H          0.75727       -1.08838       -0.54398
H          0.39436        0.59013       -0.16805
H          0.66724       -0.56799        1.14655
H          3.05130       -0.93630        0.25741
H          1.35120        2.43014       -0.07034
