18

C	2.103027	-0.294996	-1.529865
N	2.362867	0.150685	-0.182048
C	3.094327	1.389302	-0.091668
C	2.300832	2.622854	-0.518651
C	3.055602	3.73658	0.19395
O	3.590829	3.163629	1.372048
C	3.422712	1.767623	1.351596
H	1.606235	-1.276601	-1.510687
H	3.010297	-0.382284	-2.167977
H	1.415964	0.402349	-2.036073
H	2.857448	-0.575127	0.331173
H	4.042064	1.368262	-0.679728
H	1.2736	2.520393	-0.132057
H	2.249407	2.770032	-1.607586
H	3.879027	4.127332	-0.434953
H	2.408617	4.590044	0.457772
H	4.341539	1.284243	1.725786
H	2.579487	1.453149	1.999588
