15

C	1.712188	-0.13329	-0.118787
C	0.828096	-1.178194	0.545246
N	-0.407029	-1.394404	-0.190298
C	-1.410696	-0.468477	-0.235036
N	-1.406447	0.79271	-0.003673
O	-0.170906	1.345254	0.374865
C	0.882096	1.08869	-0.526021
H	2.208001	-0.552871	-1.009727
H	2.505856	0.153624	0.589659
H	1.355103	-2.141342	0.607843
H	0.603445	-0.867683	1.58024
H	-0.702501	-2.352086	-0.314815
H	-2.385951	-0.858949	-0.550417
H	1.508187	1.995646	-0.544399
H	0.467729	0.959932	-1.541988
