16
-1628.48
C          0.99664        0.00114        0.00656
C          2.52763       -0.00676       -0.03573
C          3.05914       -1.22570       -0.80796
C          3.35497       -0.66535       -2.16085
C          3.36200        0.67104       -2.15369
C          3.07142        1.21671       -0.79173
H          0.63148        0.88186        0.54521
H          0.62154       -0.88759        0.52488
H          0.56163        0.01523       -0.99838
H          2.89390       -0.01528        0.99788
H          2.32987       -2.03991       -0.85801
H          3.98167       -1.60844       -0.35809
H          3.56988       -1.27701       -3.02671
H          3.58359        1.29185       -3.01055
H          3.99814        1.58447       -0.33752
H          2.35047        2.03902       -0.83195
