15
-1523.06
C          0.95223       -0.07573        0.08550
C          2.42099        0.05320       -0.28255
O          2.86657       -1.16713       -0.91883
C          3.38643       -0.66986       -2.09062
C          3.23637        0.63518       -2.22308
C          3.66757        1.51716       -3.33320
O          2.59654        1.20952       -1.13549
H          0.60001        0.82390        0.59996
H          0.78259       -0.94919        0.72235
H          0.33856       -0.19926       -0.81380
H          3.02423        0.20246        0.62209
H          3.83179       -1.38576       -2.75553
H          4.07611        2.45460       -2.94264
H          2.81851        1.75531       -3.98109
H          4.44423        1.04262       -3.94141
