19

C	0.962699	-0.115072	-0.065141
C	2.453733	0.154618	0.012852
C	2.882946	1.597253	0.048735
C	2.024202	2.627941	0.067144
C	4.369795	1.832638	-0.019104
C	4.860199	1.873443	-1.470648
O	4.281864	2.912995	-2.200406
H	0.761565	-1.196221	-0.084105
H	0.520118	0.322092	-0.974131
H	0.42972	0.306011	0.801763
H	2.967541	-0.334983	-0.835371
H	2.878128	-0.337501	0.908194
H	0.940756	2.485407	0.063957
H	2.387774	3.658441	0.117505
H	4.911016	1.037906	0.521701
H	4.626341	2.792571	0.456134
H	4.685527	0.885306	-1.949943
H	5.950132	2.03651	-1.480859
H	3.326444	2.857925	-2.063518
