19

C	0.8458	-0.182401	0.052484
C	2.364748	-0.135774	-0.080584
C	2.856858	-1.069237	-1.179051
C	2.872159	1.301347	-0.329167
O	2.409505	1.821454	-1.548748
C	2.591693	2.209197	0.838784
C	2.080694	3.43619	0.739031
H	0.480221	0.491788	0.842734
H	0.502118	-1.200356	0.289437
H	0.355034	0.104333	-0.89335
H	2.803489	-0.459903	0.881138
H	2.508466	-0.712377	-2.160346
H	2.485558	-2.094801	-1.031587
H	3.957019	-1.107229	-1.212155
H	3.971124	1.239238	-0.441713
H	1.4539	1.929192	-1.474642
H	2.844208	1.800922	1.825169
H	1.84864	3.866675	-0.239636
H	1.897375	4.054631	1.621102
