20
-1911.6
C          3.34020       -0.61626       -1.04102
N          2.78576        0.21192        0.02124
C          3.07122        1.65512       -0.08548
C          2.40376        2.24761       -1.34309
C          2.40782        2.31697        1.14195
C          4.56618        1.90895        0.01707
C          5.35278        2.55083       -0.86090
H          3.05611       -1.65836       -0.86168
H          4.43388       -0.57978       -1.06940
H          2.94383       -0.34884       -2.02462
H          3.11477       -0.13287        0.92122
H          2.85296        1.87785       -2.27143
H          2.48523        3.34148       -1.35619
H          1.33440        2.00480       -1.37483
H          2.80863        1.92559        2.08560
H          1.32371        2.14828        1.15064
H          2.57100        3.40196        1.14410
H          5.04492        1.52221        0.91682
H          4.97453        2.97146       -1.78588
H          6.41458        2.66481       -0.66580
