20
-1860.52
C          1.39850       -0.88915        1.83660
C          2.90018       -0.74704        1.64074
C          3.22288        0.16265        0.45482
N          4.67540        0.28938        0.30905
C          5.00884        1.19009       -0.80798
C          6.53303        1.29317       -0.94365
O          7.09496       -0.00912       -1.07648
H          1.18739       -1.54290        2.68871
H          0.92594       -1.32339        0.94960
H          0.93491        0.08315        2.03193
H          3.33664       -1.74048        1.48213
H          3.34147       -0.34150        2.55925
H          2.77143        1.14893        0.61699
H          2.79119       -0.26348       -0.45868
H          5.06553        0.66822        1.17416
H          4.58424        2.18816       -0.65173
H          4.60086        0.77262       -1.73556
H          6.97421        1.76807       -0.06070
H          6.80467        1.88139       -1.82581
H          6.51749       -0.58626       -0.53576
