15
-1472.
C          0.92172       -0.01388        0.92588
C          0.27589       -1.04308       -0.03039
C          0.75135       -0.03565       -1.10345
N          0.32743        0.99812       -0.05669
C         -1.13740        0.76838        0.06613
C         -1.20550       -0.75413        0.09364
H          2.01833       -0.01241        0.97498
H          0.53157        0.03416        1.94875
H          0.64488       -2.06618       -0.04990
H          0.19556       -0.00923       -2.04751
H          1.82430       -0.03716       -1.33492
H         -1.53266        1.21513        0.98462
H         -1.67790        1.19035       -0.78788
H         -1.77519       -1.15851       -0.74892
H         -1.62165       -1.13391        1.03207
