16

C	0.961614	-0.007085	0.009048
C	2.416479	-0.000389	0.001933
C	3.62936	0.005852	-0.003909
C	5.094559	0.012378	-0.019641
C	5.639453	-0.765354	-1.221096
C	5.643145	1.441449	0.021014
H	0.556696	1.017099	0.01756
H	0.567892	-0.52781	0.896595
H	0.559432	-0.516335	-0.881277
H	5.431768	-0.504728	0.898442
H	5.331703	-0.285293	-2.163231
H	5.264206	-1.798647	-1.230895
H	6.740039	-0.795799	-1.193903
H	5.336984	1.999219	-0.878137
H	6.743786	1.430778	0.06075
H	5.270143	1.987055	0.900206
