16
-1546.45
N          0.75617       -0.50428        0.10574
C          2.21022       -0.39420        0.10637
C          2.63281        1.05544       -0.10235
C          4.15226        1.19377       -0.08817
O          4.52831        2.56904       -0.26320
C          4.61339        2.99394       -1.54754
O          4.40059        2.33281       -2.55143
H          0.48961       -1.48488        0.18749
H          0.38819       -0.18553       -0.79072
H          2.62240       -1.02767       -0.68666
H          2.59409       -0.76477        1.06287
H          2.20640        1.69832        0.67854
H          2.23486        1.43450       -1.05210
H          4.62549        0.56013       -0.84900
H          4.54908        0.87735        0.88172
H          4.90875        4.05388       -1.55418
