18

N	1.001008	0.021025	-0.037884
C	2.443712	0.01682	0.042854
C	3.01303	1.128781	0.923838
C	4.446764	0.668037	1.174116
C	4.307586	-0.846202	1.389903
C	3.036098	-1.234122	0.66067
C	2.502173	-2.454656	0.613119
H	0.678812	-0.754507	-0.613749
H	0.688056	0.864704	-0.514636
H	2.939197	0.120355	-0.95357
H	2.434493	1.149369	1.863027
H	2.944101	2.126289	0.461596
H	5.062023	0.869407	0.280763
H	4.928826	1.182852	2.018079
H	5.184041	-1.416752	1.044749
H	4.187371	-1.073196	2.462544
H	1.550587	-2.650584	0.111443
H	2.989031	-3.308851	1.092146
