18
-1784.7
C          1.05329       -0.02281        0.06319
N          2.51169        0.00475       -0.07163
C          2.98127       -1.18455       -0.82219
C          3.32598       -0.69457       -2.18505
C          3.28653        0.63971       -2.22149
C          3.59290        1.52149       -3.37370
C          2.92672        1.17966       -0.87777
H          0.70673        0.85906        0.61356
H          0.74076       -0.89690        0.64517
H          0.53878       -0.04967       -0.90455
H          2.23340       -1.98440       -0.86554
H          3.87777       -1.58918       -0.33933
H          3.58849       -1.34135       -3.00866
H          3.73570        2.55690       -3.04732
H          2.77065        1.50661       -4.09633
H          4.51147        1.20437       -3.87768
H          3.80929        1.63631       -0.41480
H          2.14539        1.94529       -0.94345
