13
-1357.61
O          1.16622        0.00940       -0.66963
C          2.29748        0.10499       -0.21275
N          2.96378        1.27227        0.05250
C          4.28627        1.37296        0.58427
C          4.50144        2.87592        0.67212
N          3.26113        3.51078        0.15809
C          2.47844        2.53352       -0.15401
H          2.89951       -0.78546        0.03489
H          4.99508        0.88307       -0.09098
H          4.33365        0.87991        1.56042
H          5.35800        3.19004        0.06673
H          4.67730        3.19121        1.70587
H          1.46383        2.63281       -0.56846
