21

C	2.208971	-0.648426	1.512043
C	2.811536	-0.280245	0.154569
C	1.819875	-0.556508	-0.977079
C	3.23369	1.161097	0.140672
C	4.46789	1.67806	0.02718
C	5.724223	0.868287	-0.110277
C	4.684965	3.164436	0.033219
H	2.93431	-0.495002	2.325392
H	1.886187	-1.701679	1.531553
H	1.325703	-0.02559	1.730659
H	3.694403	-0.920503	-0.007442
H	0.914647	0.063166	-0.864749
H	1.50251	-1.611482	-0.980404
H	2.260125	-0.327401	-1.959581
H	2.401182	1.872337	0.242104
H	5.547307	-0.215388	-0.124949
H	6.41663	1.08755	0.721064
H	6.259974	1.137412	-1.037249
H	3.742729	3.720545	0.139261
H	5.174616	3.495486	-0.899426
H	5.355538	3.462898	0.85795
