14

O	2.51625	-0.908021	-0.155716
C	1.947682	0.145102	-0.031756
C	2.640362	1.469052	0.083634
C	4.155269	1.360138	-0.002051
N	4.825275	2.627737	0.185304
C	4.750324	3.613698	-0.739012
O	4.119581	3.539745	-1.770215
H	0.827299	0.191223	0.008299
H	2.319004	1.941876	1.030491
H	2.26624	2.131442	-0.717546
H	4.425323	0.948108	-0.987307
H	4.528906	0.648303	0.747269
H	5.367305	2.789001	1.023554
H	5.33901	4.518505	-0.449469
