13
-1364.49
C          0.80515        0.10119        0.06737
C          2.13804       -0.01125        0.02197
N          2.89736       -1.15589       -0.01407
C          2.51557       -2.45929       -0.00813
N          3.29842       -3.47980       -0.04862
C          2.93095        1.17428        0.00600
C          3.60285        2.17033       -0.00762
H          0.32129        1.07323        0.09219
H          0.15285       -0.76373        0.08066
H          3.89480       -0.98344       -0.05149
H          1.42677       -2.62246        0.03643
H          4.27436       -3.17982       -0.08787
H          4.19297        3.05739       -0.01875
