18
-1699.08
C          1.11268       -0.19798        0.01598
C          2.63179       -0.12975        0.02243
C          3.12628        1.31927        0.02753
C          4.65600        1.40710        0.01083
C          5.13182        2.85270       -0.03934
O          5.19516        0.78927        1.17618
H          0.78009       -1.24081        0.01161
H          0.70104        0.29353       -0.87147
H          0.69445        0.28804        0.90343
H          3.01863       -0.65056       -0.86091
H          3.00730       -0.66133        0.90385
H          2.73878        1.81807        0.92519
H          2.71919        1.84753       -0.84346
H          5.05074        0.86908       -0.85790
H          4.78600        3.41158        0.83728
H          4.77314        3.35840       -0.94091
H          6.22628        2.89445       -0.02688
H          4.83699        1.25242        1.95266
