13
-1315.91
N          1.00398        0.29246        0.09188
C          2.28374        0.11247       -0.33198
O          2.65540       -0.89123       -0.92106
C          3.21990        1.20806        0.00605
C          3.93615        1.94214       -1.10332
C          2.89231        2.65241       -0.29377
H          0.71131        1.11181        0.60182
H          0.33429       -0.43896       -0.10217
H          3.81235        1.00428        0.89286
H          3.69863        1.67445       -2.12757
H          4.97634        2.20217       -0.94507
H          3.22428        3.40375        0.41358
H          1.95769        2.89028       -0.78914
