20
-1908.14
C          1.25982       -0.36553       -0.61381
C          2.77051       -0.20938       -0.57270
C          3.20437        0.78071        0.50781
C          4.69286        0.96002        0.51857
C          5.41636        1.24072        1.81855
N          5.52355       -0.05656        1.15774
C          6.79751       -0.26411        0.47638
H          0.97447       -1.09161       -1.38261
H          0.77308        0.58621       -0.84873
H          0.87495       -0.72107        0.34739
H          3.12808        0.12670       -1.55324
H          3.22915       -1.18762       -0.38757
H          2.84536        0.43708        1.48730
H          2.73836        1.75663        0.32485
H          5.05902        1.43772       -0.38360
H          4.84813        1.24855        2.74037
H          6.27191        1.90425        1.80424
H          6.65240       -0.93067       -0.38052
H          7.50176       -0.74992        1.15894
H          7.26868        0.65620        0.10888
