18
-1768.31
C          2.75009       -0.81222       -1.24370
C          2.32811        0.05861       -0.06693
C          3.06760        1.38335       -0.02844
C          2.39303        2.53372       -0.21137
C          4.52320        1.32945        0.19108
C          5.13133        2.08076        1.35088
N          5.01095        0.63153        1.37900
H          2.16712       -1.73843       -1.25376
H          3.80811       -1.08577       -1.18110
H          2.58477       -0.29725       -2.19551
H          2.49414       -0.48500        0.87116
H          1.24484        0.22400       -0.13132
H          1.32072        2.54728       -0.37561
H          2.90184        3.49146       -0.19427
H          5.12001        1.21947       -0.70907
H          4.48327        2.61962        2.03089
H          6.12803        2.48706        1.23687
H          5.90685        0.18297        1.18424
