21
-1929.49
C          2.22706       -0.02693       -1.76222
N          3.37641        0.83659       -1.52599
C          3.93642        0.60285       -0.18201
C          5.19207        1.48749        0.09533
C          5.55363        1.41186        1.58449
C          6.38609        1.00666       -0.74757
N          4.91318        2.89758       -0.25048
H          1.81336        0.18076       -2.75404
H          1.43533        0.14403       -1.02528
H          2.51548       -1.08292       -1.74000
H          3.06494        1.80940       -1.54900
H          4.20855       -0.45450       -0.06991
H          3.16463        0.82633        0.56645
H          4.73386        1.77797        2.21338
H          6.44149        2.01269        1.81341
H          5.76629        0.37945        1.88440
H          6.18053        1.07343       -1.82178
H          6.62913       -0.03762       -0.52114
H          7.28268        1.60409       -0.54544
H          4.78316        2.94573       -1.26244
H          5.74187        3.45965       -0.05936
