13
-1286.23
C          1.90272        0.47038       -1.31074
C          2.56424        0.26038        0.03200
O          2.39041       -0.79174        0.65046
N          3.31436        1.29258        0.57123
C          4.34459        1.98214       -0.14142
C          3.10508        2.68000        0.29576
H          2.53063        1.03893       -1.99860
H          0.95123        0.98696       -1.16680
H          1.71280       -0.50494       -1.76930
H          4.47960        1.70974       -1.17809
H          5.25045        2.10697        0.43703
H          3.13567        3.29917        1.18240
H          2.34641        2.92983       -0.43164
