17

C	3.155929	-1.136369	-0.567282
C	2.503781	0.081536	0.067405
C	3.355277	1.330563	-0.042294
C	3.556097	1.879273	-1.472833
C	3.247905	3.339347	-1.285664
C	2.773877	3.506131	-0.048043
O	2.732125	2.389089	0.71013
H	2.522839	-2.029389	-0.458216
H	4.128038	-1.359496	-0.098854
H	3.334733	-0.987779	-1.644099
H	2.304254	-0.102922	1.135303
H	1.526005	0.289362	-0.400224
H	4.33825	1.147038	0.431288
H	2.86215	1.405341	-2.193663
H	4.575293	1.688139	-1.844879
H	3.335554	4.113696	-2.046006
H	2.404582	4.409348	0.440482
