16

C	1.091564	-0.149433	-0.022977
O	2.475458	-0.001034	-0.010478
C	2.896165	1.327827	-0.002758
C	4.407161	1.344112	0.009877
O	4.827875	2.672919	0.023495
C	6.211792	2.82125	0.034089
H	0.86508	-1.224969	-0.026709
H	0.630084	0.309171	-0.921239
H	0.614372	0.306304	0.868499
H	2.517329	1.873062	0.887057
H	2.531197	1.878778	-0.894837
H	4.786984	0.80291	-0.881948
H	4.771128	0.789126	0.899886
H	6.438293	3.896739	0.04478
H	6.68712	2.371652	-0.861516
H	6.67513	2.356475	0.928189
