17

C	1.189882	0.020056	-0.404612
N	2.616973	0.010262	-0.275796
C	3.272045	-1.160855	0.278421
C	4.679656	-0.606097	0.557182
N	4.535582	0.841566	0.593231
C	3.377851	1.104857	0.114313
C	2.864334	2.492426	-0.070827
H	0.862725	-0.810539	-1.050074
H	0.850126	0.952048	-0.876806
H	0.666095	-0.085327	0.568906
H	3.256694	-2.010918	-0.422598
H	2.760996	-1.483918	1.210531
H	5.383163	-0.878232	-0.252156
H	5.113204	-0.990788	1.493379
H	1.969239	2.676415	0.544149
H	2.589581	2.673074	-1.121858
H	3.649584	3.19806	0.222954
