14
-1442.18
O          1.17416       -0.53068        0.02479
C          2.37476       -0.29283       -0.00435
C          2.87816        1.09286       -0.03172
C          4.19524        1.33834       -0.07721
C          4.80378        2.66750       -0.10501
C          4.99741        3.41558        1.18899
N          6.12217        2.78873        0.50611
H          3.13344       -1.09267       -0.01316
H          2.13316        1.87899       -0.00964
H          4.89364        0.50256       -0.09916
H          4.64447        3.24136       -1.01247
H          4.69135        2.95279        2.11936
H          4.95843        4.49752        1.17325
H          6.68531        3.48596        0.01594
