22

C	1.732839	-0.457155	-0.681583
C	3.185978	-0.112021	-0.417473
N	3.365309	1.309895	-0.242935
C	4.71954	1.722935	0.034234
C	4.854663	3.241612	0.1343
C	6.272755	3.630225	0.535495
C	4.428797	3.925895	-1.159475
H	1.604624	-1.535156	-0.859847
H	1.360346	0.091796	-1.559514
H	1.097107	-0.186635	0.178179
H	3.803006	-0.43085	-1.276962
H	3.557806	-0.704505	0.451439
H	2.744319	1.649768	0.489951
H	5.365421	1.363476	-0.789299
H	5.131742	1.259803	0.961578
H	4.172071	3.576082	0.940949
H	6.997854	3.308765	-0.231273
H	6.569356	3.166381	1.489493
H	6.371027	4.721179	0.646679
H	5.122062	3.666446	-1.977804
H	4.429778	5.022278	-1.053814
H	3.42436	3.596413	-1.459808
