14
-1403.59
O          1.37383       -0.71803       -0.46946
C          1.79050        0.08338       -1.48253
O          1.35981       -0.01392       -2.62217
C          2.82432        1.11678       -1.04481
N          3.19076        0.86565        0.37205
C          4.55956        0.37914        0.54916
C          4.20242        1.80760        0.85318
H          1.86312       -0.43461        0.33958
H          2.35539        2.10316       -1.12824
H          3.67779        1.05414       -1.72933
H          5.16857        0.17118       -0.32301
H          4.72376       -0.28931        1.38722
H          4.11842        2.10184        1.89285
H          4.55523        2.58295        0.18314
