18
-1710.8
C          0.81245       -0.32524        0.00667
N          2.25572       -0.17142        0.12026
C          2.65181        1.23867       -0.00976
C          4.18026        1.38388       -0.00963
O          4.70374        0.77964       -1.19830
C          6.05720        0.80977       -1.37046
C          6.99802        1.34225       -0.58106
H          0.55119       -1.38384        0.09351
H          0.44284        0.03457       -0.95871
H          0.29617        0.20902        0.81012
H          2.71843       -0.69974       -0.62343
H          2.23907        1.81377        0.82645
H          2.25729        1.64765       -0.94728
H          4.60304        0.90253        0.88161
H          4.43099        2.45189       -0.00181
H          6.30994        0.30928       -2.29962
H          6.77361        1.84500        0.35092
H          8.04307        1.27724       -0.86644
