17

C	0.923322	0.531594	0.516936
C	2.340195	0.586408	-0.027485
C	2.486858	-0.122703	-1.387913
C	3.900027	-0.292852	-1.853046
C	4.389815	0.136278	-3.017205
C	2.849427	2.007548	-0.111805
O	2.245425	2.971479	0.278102
H	0.84924	1.068157	1.472601
H	0.598285	-0.508329	0.668288
H	0.221093	1.014104	-0.180246
H	3.030026	0.08084	0.67949
H	1.894966	0.413762	-2.149292
H	2.02567	-1.121273	-1.28591
H	4.56647	-0.830402	-1.164373
H	3.764	0.677684	-3.734744
H	5.430439	-0.041478	-3.300218
H	3.863563	2.114992	-0.576509
