15

C	1.009612	0.036543	-0.164518
C	2.493875	0.02469	0.01673
N	3.128052	1.152	0.011055
N	4.455327	1.124161	0.221472
C	5.24409	-0.007518	-0.219165
C	4.542237	-1.246471	0.258851
C	3.201558	-1.222019	0.308467
H	0.706921	-0.547639	-1.049731
H	0.659189	1.069314	-0.288826
H	0.497737	-0.409297	0.705174
H	4.869031	2.034523	0.065583
H	6.2524	0.080596	0.21349
H	5.370726	-0.036831	-1.329313
H	5.117352	-2.140976	0.512457
H	2.625953	-2.100787	0.612633
