16

C	3.534879	-1.190441	-1.181508
N	3.245232	-0.497834	0.056067
C	3.479098	0.915411	0.005306
C	4.938127	1.331412	-0.026274
O	5.826049	0.562265	0.272369
C	5.293034	2.749833	-0.413199
O	6.640966	2.99811	-0.246674
H	3.359334	-2.268475	-1.049423
H	4.570995	-1.06055	-1.555887
H	2.845143	-0.846059	-1.9698
H	3.804736	-0.894391	0.808578
H	3.042022	1.410707	0.894853
H	2.952229	1.362079	-0.85666
H	4.666731	3.444089	0.182786
H	4.963155	2.881582	-1.46718
H	7.02589	2.13738	-0.008375
