19

C	0.919971	-0.076207	-0.019716
C	2.422847	0.08468	0.089441
O	3.096345	-0.667077	-0.907251
C	2.958792	1.536175	0.07086
C	2.54811	2.280893	-1.20116
C	2.527078	2.304875	1.309456
O	4.366227	1.442171	0.122033
H	0.395019	0.451135	0.789265
H	0.654332	-1.141657	0.036275
H	0.540791	0.318186	-0.977234
H	2.769081	-0.34759	1.043539
H	2.675018	-0.484675	-1.75477
H	2.859471	1.723266	-2.099585
H	3.065191	3.250001	-1.229238
H	1.464129	2.462137	-1.258914
H	2.802119	1.75029	2.219535
H	1.445188	2.500357	1.319276
H	3.052389	3.270271	1.33554
H	4.587262	0.68819	-0.44422
