16

C	2.177409	-0.33096	-1.571653
N	2.392315	0.134385	-0.221873
C	3.403242	1.17573	-0.102399
C	3.532502	1.650143	1.361688
O	3.119968	3.017438	1.417618
C	2.865456	3.406075	0.153433
C	3.016042	2.465096	-0.782509
H	1.501948	-1.199563	-1.5613
H	3.105139	-0.626212	-2.111505
H	1.685359	0.452077	-2.170648
H	2.673411	-0.654102	0.358617
H	4.390646	0.823235	-0.483078
H	4.566858	1.592264	1.735606
H	2.87503	1.064125	2.022655
H	2.566867	4.450686	0.046928
H	2.866737	2.602304	-1.851602
