15

N	1.30202	-0.175225	0.008427
N	2.609336	0.092547	0.018457
C	3.02586	1.319272	0.007658
C	2.111619	2.469023	0.067948
C	2.374153	3.709273	-0.366048
C	4.48071	1.548631	-0.030533
C	5.394326	0.641408	-0.394995
H	1.111091	-1.147702	-0.196732
H	0.674579	0.470589	-0.469329
H	1.141634	2.278414	0.544835
H	3.315818	3.961167	-0.862082
H	1.647033	4.516246	-0.243424
H	4.810141	2.546265	0.278055
H	5.090997	-0.358378	-0.716581
H	6.461951	0.872748	-0.364486
