14

C	1.097136	-0.035576	-0.130827
C	2.573923	0.120857	-0.100509
N	3.158683	1.120656	-0.656837
O	4.512446	1.059247	-0.425941
C	4.823592	-0.117538	0.267135
C	4.535051	-1.410215	-0.413625
C	3.519652	-0.820827	0.544189
H	0.811742	-0.964123	-0.651253
H	0.633661	0.818941	-0.64031
H	0.69476	-0.101492	0.89294
H	5.649005	0.003648	0.97335
H	5.089244	-2.281668	-0.058082
H	4.307842	-1.399213	-1.483571
H	3.254732	-1.333927	1.472462
