17
-1569.11
C          1.04986       -0.11286        0.10358
N          2.50052       -0.27649       -0.07471
C          2.78781       -1.71285       -0.22564
N          3.02537        0.53393       -1.03476
C          4.24939        0.88411       -0.78862
C          4.99707        1.76364       -1.76600
O          4.12709        2.52502       -2.58234
H          0.81100        0.94027        0.28920
H          0.69330       -0.67833        0.97141
H          0.49489       -0.43618       -0.78446
H          2.41605       -2.27892        0.63556
H          3.86873       -1.88374       -0.27262
H          2.33927       -2.11888       -1.13910
H          4.81310        0.52835        0.09260
H          5.62498        1.12796       -2.39720
H          5.64268        2.44479       -1.20476
H          3.30132        2.00303       -2.64195
