17
-1752.67
C          1.68268       -0.67302       -0.90114
C          1.89974        0.45981       -0.22263
C          3.18666        1.15437       -0.11591
C          3.65305        1.99534       -1.27291
C          3.19509        2.66268       -0.00377
C          4.19901        3.31071        0.84621
C          4.29559        3.18594        2.17595
H          0.69863       -1.12988       -0.92524
H          2.48384       -1.16559       -1.44401
H          1.06013        0.90343        0.31040
H          3.94614        0.60286        0.43157
H          3.01600        2.08410       -2.14612
H          4.71129        1.97691       -1.50849
H          2.24583        3.18880       -0.04668
H          4.91282        3.96030        0.34187
H          3.60781        2.55761        2.73348
H          5.06776        3.70848        2.73067
