21

C	0.998337	1.799625	1.08931
N	2.437856	1.837081	1.08308
C	3.041311	1.296579	-0.112639
C	4.563253	1.410146	-0.106388
C	5.179009	0.670248	-1.28565
C	5.009907	2.871257	-0.061288
N	6.446845	2.98054	0.128327
H	0.611493	2.178936	2.047581
H	0.560792	0.789471	0.922057
H	0.60209	2.455871	0.296403
H	2.805215	1.352686	1.899128
H	2.647218	1.859482	-0.98018
H	2.758926	0.233465	-0.294665
H	4.925094	0.927176	0.82559
H	4.773941	1.055023	-2.237099
H	4.96963	-0.410377	-1.245028
H	6.267317	0.823973	-1.298761
H	4.400517	3.39212	0.702676
H	4.755323	3.33591	-1.031502
H	6.692209	2.706618	1.078693
H	6.745676	3.947899	0.030573
