10

C	1.434625	-1.013161	0.4256
C	2.126052	0.122648	0.282053
C	1.637037	1.191018	-0.613952
O	0.623089	1.141932	-1.274602
C	2.493611	2.455388	-0.701966
O	3.513687	2.610565	-0.089617
H	1.776158	-1.817871	1.081527
H	0.498055	-1.153942	-0.123444
H	3.065093	0.309639	0.809204
H	2.067294	3.220914	-1.397873
