17
-1700.73
C          0.95925        0.02173        0.44608
C          2.37946        0.35389       -0.00589
O          2.39789        0.22118       -1.43404
C          3.57665       -0.00602       -2.08138
C          4.81771       -0.08129       -1.59009
C          2.71551        1.77238        0.37833
C          3.47354        2.11737        1.42805
H          0.85946        0.08557        1.53454
H          0.68923       -0.99251        0.13248
H          0.22654        0.69631       -0.01215
H          3.05650       -0.37242        0.46062
H          3.37844       -0.12317       -3.14251
H          5.04908        0.04720       -0.53956
H          5.65232       -0.26851       -2.25870
H          2.30493        2.55370       -0.25823
H          3.89858        1.37437        2.09532
H          3.67541        3.16239        1.64513
