19

C	1.003241	-0.189775	0.01667
C	2.502383	-0.07776	-0.053503
C	3.255408	-0.572777	-1.256164
C	3.160609	0.902774	-0.979783
C	4.383953	1.683541	-0.553248
C	5.237501	2.094537	-1.713104
C	5.551492	3.350187	-2.03438
H	0.574493	0.562848	0.697689
H	0.690894	-1.183674	0.375577
H	0.547904	-0.039553	-0.97502
H	3.013733	-0.219722	0.906637
H	2.677654	-0.982202	-2.090587
H	4.220636	-1.064241	-1.098672
H	2.483256	1.463394	-1.635436
H	4.98052	1.05186	0.13093
H	4.082274	2.573184	0.025404
H	5.606007	1.27462	-2.343433
H	5.196928	4.196916	-1.436641
H	6.172753	3.582513	-2.903706
