13
-1319.09
C          2.13161        0.61912       -0.13984
N          3.32672        0.56579       -0.62390
N          4.29691        1.03880        0.19093
C          5.61520        1.04739       -0.17986
C          6.64996        1.50113        0.53371
C          8.01133        1.43262       -0.02448
O          8.97713        1.84112        0.60849
H          1.28539        0.25401       -0.74307
H          1.89356        1.01449        0.86154
H          4.08180        1.42588        1.10977
H          5.75549        0.62377       -1.17329
H          6.55015        1.92857        1.52280
H          8.11015        0.99755       -1.03287
