14
-1398.71
C          1.70409       -0.55944       -0.65601
O          3.10770       -0.43261       -0.46088
N          3.40695        0.92726       -0.28282
C          4.67569        1.09171       -0.09389
C          5.74202        0.04740       -0.05948
C          5.01387        2.48105        0.07991
C          5.29865        3.63869        0.22383
H          1.46867       -1.61791       -0.79422
H          1.39449       -0.00923       -1.54988
H          1.16464       -0.18955        0.22137
H          5.48834       -0.71517        0.68224
H          6.70966        0.48461        0.20152
H          5.81980       -0.42412       -1.04322
H          5.54040        4.66886        0.34967
