19
-1807.38
N          0.99436        0.03531        0.15794
C          2.45456        0.01195        0.01881
C          2.92515       -1.33069       -0.55310
C          2.61001       -1.47067       -2.04212
N          3.16848       -0.36249       -2.82408
C          2.61828        0.91337       -2.35428
C          2.93386        1.15902       -0.87788
H          0.70295        0.91421        0.58494
H          0.69695       -0.70386        0.79515
H          2.88162        0.14136        1.02010
H          2.47797       -2.16523        0.00086
H          4.01068       -1.41328       -0.40843
H          3.03731       -2.40840       -2.41393
H          1.52798       -1.53736       -2.20742
H          4.18183       -0.35139       -2.71258
H          3.05220        1.72129       -2.95407
H          1.53679        0.94316       -2.53209
H          4.01959        1.26905       -0.75910
H          2.49229        2.11083       -0.55856
