16
-1472.02
C          0.97020       -0.07979        0.06060
C          2.48924        0.01552        0.08887
C          3.00965        1.45982        0.03025
C          2.59263        2.29215        1.24250
N          4.47285        1.42712       -0.05766
H          0.66129       -1.12878        0.00228
H          0.55879        0.44267       -0.80933
H          0.52334        0.34514        0.96458
H          2.88049       -0.54540       -0.76935
H          2.85986       -0.48795        0.99015
H          2.62894        1.94219       -0.87813
H          2.90919        1.82224        2.17960
H          1.50697        2.42230        1.27692
H          3.03450        3.29394        1.20087
H          4.85891        1.00091        0.78447
H          4.83596        2.37948       -0.08281
