17
-1578.67
C          1.09105       -0.82957        0.19942
C          2.47864       -0.31231        0.54308
O          3.42910       -1.31758        0.18217
C          2.79324        1.00247       -0.19564
N          4.11947        1.53141        0.17273
N          5.19298        0.80013       -0.21407
C          6.32272        1.36646        0.05628
H          0.31740       -0.11082        0.48449
H          0.89742       -1.77514        0.71697
H          1.00340       -1.03450       -0.87296
H          2.55264       -0.16184        1.62647
H          4.25580       -0.81803       -0.00983
H          2.03867        1.75838        0.04752
H          2.76822        0.84710       -1.28072
H          4.13145        1.72684        1.17816
H          7.26276        0.85942       -0.21223
H          6.41230        2.35272        0.54592
