14

C	1.051387	-0.028796	0.134146
C	2.521586	0.045432	-0.062768
N	3.227868	-0.994762	-0.338345
O	4.539772	-0.665081	-0.471056
C	4.720187	0.737832	-0.262541
C	3.341785	1.254869	0.023066
C	2.933045	2.500864	0.293889
H	0.706681	-1.064033	0.018512
H	0.52685	0.606119	-0.597453
H	0.774341	0.330497	1.138006
H	5.166182	1.177455	-1.170828
H	5.41971	0.884424	0.578
H	3.62962	3.341355	0.337538
H	1.878276	2.712993	0.483532
