15
-1604.99
C          0.95863       -0.12788       -0.00374
C          2.42334        0.06653       -0.00428
C          3.24193        1.18214       -0.00084
C          2.82447        2.60425        0.00493
C          4.57277        0.67771       -0.00410
C          4.47308       -0.69330       -0.00938
O          3.17089       -1.07198       -0.00955
H          0.43017        0.83008        0.00863
H          0.64940       -0.69784        0.87781
H          0.64621       -0.67680       -0.89754
H          3.69188        3.27241        0.01154
H          2.22165        2.82391        0.89215
H          2.22824        2.83280       -0.88456
H          5.49254        1.24486       -0.00285
H          5.19387       -1.49792       -0.01326
