15
-1492.56
C         -1.63684        0.70695        0.64141
C         -1.02020       -0.27803       -0.32711
C          0.02035       -1.24146        0.02754
N          1.31104       -1.25176       -0.65245
C          1.09747       -0.27427        0.42114
C          0.73729        1.14318        0.15561
N         -0.62980        1.07667       -0.34851
H         -2.63995        1.05749        0.43735
H         -1.35229        0.68638        1.68290
H         -1.66825       -0.59392       -1.14206
H         -0.20854       -2.06905        0.68589
H          1.87887       -2.03632       -0.33162
H          1.67154       -0.42228        1.32604
H          0.79777        1.74942        1.06683
H          1.40328        1.58428       -0.59266
