14

C	0.903896	-0.063836	-0.24212
C	2.214403	0.044569	0.019095
C	2.929138	1.328296	0.328004
C	4.342964	1.194841	-0.200119
O	5.002202	0.063455	0.346835
N	4.356557	-1.127981	0.270155
C	3.086505	-1.127562	0.072648
H	0.2552	0.815932	-0.26836
H	0.443507	-1.037115	-0.433569
H	2.420896	2.197883	-0.11472
H	2.962259	1.479748	1.420988
H	4.978985	2.050059	0.066216
H	4.326874	1.096003	-1.303135
H	2.646174	-2.128223	0.000351
