15

O	2.410119	-0.413432	-0.339825
C	2.226544	0.856642	-0.864372
C	0.758348	1.106354	-1.122498
O	-0.070351	0.258471	-0.908315
C	2.782339	1.936831	0.035227
C	4.242774	2.260719	-0.016193
C	3.242378	3.241351	-0.551035
H	1.526835	-0.819261	-0.33032
H	2.723619	0.95975	-1.857834
H	0.485274	2.114896	-1.51615
H	2.30429	1.967961	1.020478
H	4.856283	1.70619	-0.73226
H	4.748589	2.49167	0.924271
H	3.049013	4.156825	0.012884
H	3.180724	3.368731	-1.636727
