14

C	3.359052	-1.170539	-0.037471
O	2.521271	-0.049019	0.062124
C	3.089551	1.160487	0.047517
C	4.39351	1.461816	-0.039902
C	4.875117	2.885013	-0.035282
C	5.587202	3.248854	-1.261816
N	6.157614	3.51878	-2.231973
H	2.712066	-2.055968	-0.013722
H	4.070666	-1.218865	0.806547
H	3.930731	-1.164142	-0.982398
H	2.327921	1.944698	0.123138
H	5.155088	0.683685	-0.127393
H	5.561648	3.071729	0.809662
H	4.032353	3.584272	0.090779
