12

C	0.927136	-0.075398	-0.005877
C	2.4088	0.027241	-0.003154
C	3.197426	1.138829	-0.003493
O	2.912854	2.438665	-0.005866
O	4.493714	0.76376	-0.00074
C	4.446774	-0.595748	0.001333
N	3.254769	-1.072391	-0.000275
H	0.468624	0.92262	0.000145
H	0.567215	-0.627126	0.876832
H	0.568895	-0.615153	-0.896737
H	3.734653	2.943327	-0.004158
H	5.400709	-1.119337	0.00391
