15
-1439.4
C          0.04136        0.61089       -0.13245
C          1.40751        0.13499        0.23224
C          2.53034        0.79653       -0.06603
O          3.78560        0.29915        0.29313
C          4.81473        1.19350        0.38290
N          4.71966        2.46739        0.17953
N          5.89656        3.11854        0.35450
H         -0.45906       -0.13419       -0.75829
H          0.06623        1.55745       -0.68186
H         -0.55612        0.75741        0.77268
H          1.47347       -0.80371        0.77610
H          2.55672        1.72979       -0.61356
H          5.73983        0.66054        0.66263
H          5.92712        3.91764       -0.28689
H          5.89904        3.56899        1.27576
