13

C	1.077831	0.136757	-0.131399
C	2.551003	-0.0445	0.192131
O	3.312415	1.092769	-0.238945
C	3.605512	1.068637	-1.542705
N	3.701591	0.026762	-2.277297
N	3.685363	-1.197914	-1.622399
C	3.151908	-1.256353	-0.46664
H	0.700755	1.069724	0.312518
H	0.496838	-0.704638	0.275056
H	0.919209	0.168656	-1.219791
H	2.697897	-0.092633	1.281335
H	3.798847	2.060584	-1.966128
H	3.170361	-2.220671	0.057292
