15
-1587.87
O          1.06433        0.13310       -0.22913
C          2.46833        0.00352       -0.07082
C          2.86191       -1.29717        0.65188
C          3.23041       -0.85303        2.04363
C          3.40210       -1.63605        3.11039
C          3.33224        0.58307        2.03669
C          2.91985        1.07428        0.86526
H          0.73024       -0.70615       -0.58252
H          2.94700        0.08124       -1.05121
H          3.74905       -1.73200        0.17268
H          2.05678       -2.03789        0.65671
H          3.28784       -2.71360        3.03825
H          3.64633       -1.22633        4.08604
H          3.65818        1.17463        2.87987
H          2.86445        2.12628        0.62586
