13

C	1.952418	-1.096983	0.37833
C	1.573623	0.177356	0.296415
N	2.364404	1.240977	-0.18582
C	1.819455	2.512109	-0.201001
O	2.3653	3.517502	-0.57978
N	3.613414	0.894257	-0.593998
C	4.446086	1.738131	-1.061507
H	1.25248	-1.836331	0.76844
H	2.947187	-1.411324	0.061773
H	0.578561	0.501625	0.610348
H	0.776807	2.50096	0.192991
H	5.415632	1.317088	-1.351668
H	4.260485	2.808802	-1.186863
