19
-1786.25
C          0.90469       -0.01765        0.19532
C          2.40077        0.00587       -0.02537
N          2.74723        0.04464       -1.45279
C          3.23511        1.07545        0.72071
C          4.14697       -0.02749        1.28789
N          5.43317       -0.00488        0.58965
C          3.23854       -1.10187        0.65926
H          0.66188       -0.05121        1.26223
H          0.44891       -0.89515       -0.27498
H          0.42875        0.87563       -0.22247
H          3.73303        0.19921       -1.64967
H          2.25779        0.77774       -1.96535
H          2.66973        1.59022        1.51007
H          3.71031        1.85492        0.11169
H          4.22679       -0.04977        2.37782
H          5.37266       -0.10437       -0.42157
H          6.06140       -0.75022        0.88967
H          3.71557       -1.84282        0.00665
H          2.67855       -1.66086        1.42011
