15
-1506.22
C          1.10725       -0.04033        0.18420
N          2.49261        0.01728       -0.20791
C          3.26277        1.24106       -0.18135
C          4.62440        0.80097       -0.70331
N          4.61832       -0.62115       -0.49970
C          3.32709       -1.09028       -0.30417
O          3.01788       -2.26559       -0.23536
H          0.72559       -1.05967        0.09123
H          0.53070        0.62897       -0.45849
H          1.02139        0.28153        1.22505
H          3.32597        1.58396        0.85628
H          2.79657        2.01130       -0.80243
H          4.72143        0.98578       -1.77722
H          5.46079        1.26219       -0.17252
H          5.35572       -1.26979       -0.74127
