14
-1431.09
C          0.93346       -0.15745       -0.06327
C          2.41525        0.04460       -0.11449
C          3.08063        1.20868        0.00303
C          2.50170        2.57731        0.18532
C          4.56966        1.14604       -0.06486
O          5.27879        2.14033        0.03318
H          0.69613       -0.92856        0.67671
H          0.57275       -0.49937       -1.03812
H          0.37830        0.74121        0.21193
H          2.97330       -0.88060       -0.25682
H          1.41107        2.59315        0.12836
H          2.87001        3.25433       -0.59309
H          2.78914        2.98383        1.16073
H          5.00628        0.14339       -0.20770
