15

C	0.716116	0.386889	0.235626
C	2.034492	0.087017	-0.390735
C	3.227855	0.354796	0.160297
C	4.542043	0.087553	-0.434115
C	4.807083	-0.055025	-1.745901
C	5.693821	-0.011662	0.515133
O	6.828281	-0.261959	0.199825
H	0.116971	-0.531192	0.359421
H	0.120317	1.062285	-0.40241
H	0.829036	0.860201	1.222002
H	2.006661	-0.399096	-1.374404
H	3.244672	0.796643	1.165572
H	4.036193	0.051183	-2.512827
H	5.831442	-0.27496	-2.058122
H	5.427267	0.172567	1.589167
