20
-1847.52
C          2.60279       -1.74783        0.08232
N          3.77169       -0.91099       -0.15731
C          3.41766        0.51140       -0.09581
C          4.66215        1.36082       -0.36020
C          4.37127        2.85162       -0.22236
O          3.40842        3.24244       -1.20078
C          3.12558        4.63436       -1.13058
H          2.89509       -2.80141        0.03905
H          1.82829       -1.58174       -0.67316
H          2.18113       -1.56358        1.07540
H          4.14691       -1.12052       -1.08281
H          3.01801        0.75048        0.89682
H          2.64386        0.73858       -0.83876
H          5.02801        1.15720       -1.37432
H          5.45865        1.08916        0.34211
H          5.29701        3.41741       -0.37937
H          3.98920        3.07428        0.78086
H          2.37843        4.87186       -1.89187
H          4.02838        5.21825       -1.33218
H          2.71953        4.89375       -0.14852
