12

C	0.965841	-0.014509	-0.005397
C	2.419767	0.011318	0.017317
C	3.631003	0.034467	0.056587
C	5.093082	0.057693	0.063141
N	5.618247	1.397066	-0.144619
H	0.54515	0.88647	0.468688
H	0.576869	-0.889354	0.539568
H	0.578204	-0.063701	-1.035066
H	5.445305	-0.699561	-0.67208
H	5.442277	-0.302913	1.047063
H	5.33027	1.742604	-1.058218
H	6.635874	1.369191	-0.150935
