14
-1364.59
O          1.50397       -0.39004        1.08480
C          1.82353        0.17421       -0.17754
C          2.74318        1.38865       -0.01937
C          2.12851        2.74425        0.15121
C          0.86566        2.94766        0.54593
N          4.02252        1.14497       -0.03366
O          4.78566        2.30598        0.13488
H          2.35702       -0.62093        1.49712
H          0.89875        0.44960       -0.69004
H          2.32278       -0.58730       -0.78501
H          2.77822        3.59209       -0.04172
H          0.18699        2.13668        0.79311
H          0.48653        3.95800        0.66371
H          5.69862        1.96182        0.12487
