15
-1547.95
C          0.75992        0.58393        0.72479
C          1.74608        0.71354       -0.17280
C          3.10823        1.18048        0.10423
O          3.93124        1.76173       -0.91825
C          3.38804        2.67061        0.05071
C          4.19898        3.26562        1.11870
C          5.38166        3.87420        0.95530
H         -0.22038        0.22708        0.42471
H          0.91042        0.82793        1.77100
H          1.53861        0.45036       -1.20836
H          3.63496        0.58351        0.84316
H          2.59723        3.32453       -0.30389
H          3.78505        3.20732        2.12328
H          5.83591        3.95773       -0.02701
H          5.91753        4.29290        1.80038
