21
-1983.35
C          0.23853        1.70926        0.82597
C          1.58845        1.01051        0.83709
C          2.71984        1.97253        0.47637
C          4.07316        1.26477        0.48153
C          5.20773        2.21361        0.11578
O          6.43171        1.47945        0.14366
C          7.53870        2.29078       -0.22750
H         -0.55633        1.00342        1.08784
H          0.01582        2.11842       -0.16540
H          0.21492        2.53096        1.54979
H          1.56703        0.17744        0.12583
H          1.76450        0.58490        1.83113
H          2.73777        2.80447        1.19131
H          2.53458        2.40325       -0.51547
H          4.06356        0.42310       -0.22282
H          4.26895        0.82694        1.46875
H          5.26157        3.03774        0.83610
H          5.04955        2.62495       -0.88761
H          8.44534        1.68433       -0.16460
H          7.63752        3.14074        0.45360
H          7.42433        2.64294       -1.25672
