15
-1518.88
C          0.92934       -0.05743       -0.03276
C          2.41283        0.05599       -0.02673
C          3.10053        1.20811       -0.01102
C          4.59688        1.23207        0.03485
N          5.18135       -0.06817       -0.28166
N          4.54518       -1.23405       -0.00329
C          3.24848       -1.16857        0.06113
H          0.60158       -1.10173       -0.04574
H          0.50766        0.43323       -0.91590
H          0.50624        0.41049        0.86276
H          2.58408        2.16204       -0.01710
H          4.96805        1.96286       -0.69217
H          4.91770        1.55904        1.03055
H          6.16231       -0.10952       -0.00574
H          2.69719       -2.10869        0.22722
