13

C	1.028219	-0.053007	0.008887
C	2.512704	0.092976	-0.014295
C	3.195378	1.275895	-0.006596
S	4.90388	0.978769	-0.045413
C	4.555975	-0.738871	-0.055141
N	5.560098	-1.661808	-0.13447
N	3.293485	-1.037653	-0.036707
H	0.526778	0.923173	0.037406
H	0.713281	-0.637787	0.887599
H	0.682562	-0.600729	-0.882084
H	2.800461	2.289423	0.023357
H	5.26232	-2.60945	0.065056
H	6.4642	-1.409911	0.241161
