19
-1847.05
C          0.64434        0.47347       -0.99803
C          1.87346       -0.25896       -0.48009
C          3.02921        0.71109       -0.22101
C          4.26299        0.01383        0.30755
C          4.73288        0.27347        1.53834
O          4.82758       -0.85034       -0.60626
C          6.02071       -1.53062       -0.23372
H         -0.16432       -0.23603       -1.19948
H          0.86786        1.00656       -1.92779
H          0.28287        1.20052       -0.26371
H          2.17081       -1.01636       -1.21522
H          1.61288       -0.79028        0.44314
H          2.69686        1.48637        0.48096
H          3.29263        1.23033       -1.15098
H          4.22747        0.98157        2.18894
H          5.62096       -0.19292        1.94566
H          6.31135       -2.18081       -1.06409
H          5.85612       -2.16227        0.64521
H          6.83585       -0.82066       -0.05992
