18
-1769.89
C          0.83425       -0.11803        0.13304
C          2.31911        0.00183        0.25995
C          3.09129        1.07942        0.00374
C          2.52160        2.42130       -0.38892
C          4.55928        1.04291        0.15520
C          5.36842        0.10284       -0.70613
N          5.37563        1.53608       -0.95329
H          0.59008       -1.02054       -0.43683
H          0.37180        0.72441       -0.38520
H          0.38170       -0.20995        1.12488
H          2.81392       -0.91551        0.57764
H          1.47931        2.54657       -0.08343
H          2.58555        2.55830       -1.47310
H          3.08110        3.23062        0.09400
H          4.92455        1.26370        1.15330
H          4.86198       -0.50009       -1.44975
H          6.27164       -0.32770       -0.29346
H          6.23065        1.96650       -0.59978
