14
-1426.58
C         -1.38892        0.68213        0.01706
C         -1.52831       -0.83141       -0.05343
C         -0.25870       -1.61339        0.15180
C          0.99130       -1.14818        0.29207
C          1.39833        0.28281        0.32995
N          0.83473        1.34174       -0.15512
O         -0.34249        1.07287       -0.87249
H         -2.31434        1.15795       -0.32349
H         -1.20211        1.02806        1.04185
H         -1.91180       -1.10348       -1.04497
H         -2.27337       -1.15809        0.68053
H         -0.39218       -2.69450        0.15706
H          1.81263       -1.84547        0.42971
H          2.34976        0.44619        0.86555
