13
-1390.93
O          2.12629        0.71148       -0.42475
C          2.42158        1.88247       -0.64382
C          3.73177        2.53998       -0.25270
C          4.73920        1.54505        0.24422
C          5.98515        1.44433       -0.24067
C          6.91799        0.42929        0.28764
O          8.07280        0.36015       -0.11375
H          1.69315        2.55780       -1.12709
H          3.51469        3.27176        0.53191
H          4.10398        3.07837       -1.13153
H          4.40001        0.87492        1.03418
H          6.37413        2.08398       -1.02460
H          6.51949       -0.25152        1.05947
