14
-1452.71
C          0.99826       -0.05833        0.16414
C          2.47731        0.13419       -0.09436
C          3.21586        1.13640        0.80016
C          4.14230       -0.03994        1.13418
O          3.25108       -0.96742        0.44837
C          5.45860       -0.00988        0.52466
N          6.51448        0.04630        0.04173
H          0.61555       -0.91193       -0.40454
H          0.43609        0.82894       -0.14379
H          0.79354       -0.23917        1.22449
H          2.69595        0.25760       -1.16238
H          2.64564        1.51178        1.65567
H          3.66660        1.98023        0.26981
H          4.17514       -0.26993        2.20550
