15
-1587.86
O          1.71813       -0.24346        1.24169
C          2.41987       -0.01438        0.02762
C          2.96851        1.36900        0.02447
C          4.25151        1.75847       -0.09481
C          4.33627        3.25661       -0.06432
C          2.89650        3.64649        0.08401
C          2.13209        2.54635        0.13447
H          1.40780       -1.16291        1.21382
H          1.72857       -0.15442       -0.80975
H          3.22021       -0.75717       -0.05448
H          5.10400        1.10377       -0.19576
H          4.75868        3.64747       -0.99443
H          4.93016        3.60153        0.78692
H          2.53984        4.66236        0.15430
H          1.05988        2.51450        0.25856
