15
-1511.96
N          2.47453       -1.39198        1.12001
C          2.74913       -0.68238       -0.00839
N          2.61282       -1.19724       -1.18138
C          3.24464        0.74097        0.11375
C          4.76800        0.75811        0.11563
C          5.28290        2.13036        0.24398
C          5.70561        3.25019        0.34095
H          2.31511       -0.86559        1.97260
H          1.86115       -2.19139        1.02237
H          2.30445       -2.16813       -1.10200
H          2.84848        1.18551        1.03459
H          2.85216        1.32656       -0.72653
H          5.15181        0.30494       -0.80622
H          5.14747        0.14639        0.94323
H          6.08171        4.24421        0.41909
