19
-1845.4
C          0.70947       -0.11422       -0.10669
C          2.20129       -0.32219       -0.36476
C          2.44320       -0.77357       -1.80463
C          2.99907        0.91955       -0.01249
C          2.80159        2.16900       -0.81878
C          3.56402        1.04511        1.38791
O          4.38019        0.64597        0.27863
H          0.53356        0.21032        0.92474
H          0.15516       -1.04506       -0.26723
H          0.28580        0.64599       -0.77175
H          2.52999       -1.14276        0.28711
H          2.05970       -0.04626       -2.52809
H          1.94434       -1.72921       -1.99831
H          3.51305       -0.90613       -1.99848
H          3.45154        2.97908       -0.47070
H          1.76915        2.52129       -0.74127
H          3.03278        1.99793       -1.87393
H          3.31847        0.29049        2.12500
H          3.73089        2.03177        1.80215
