19

C	1.573372	0.551862	-1.075506
C	2.981727	0.683635	-0.547511
O	3.257671	2.037767	-0.327805
C	4.550282	2.283712	0.14956
C	4.783634	3.764961	0.246567
C	4.42903	4.552131	-0.976222
C	5.299172	4.31135	1.352547
H	1.321099	-0.503152	-1.257552
H	1.464966	1.105508	-2.019671
H	0.853533	0.96495	-0.35363
H	3.709687	0.253768	-1.268898
H	3.097753	0.106707	0.394489
H	5.300399	1.84718	-0.548716
H	4.712579	1.80075	1.134323
H	4.995627	4.190507	-1.851038
H	4.631487	5.624506	-0.846981
H	3.363635	4.410368	-1.214234
H	5.528724	3.707354	2.23513
H	5.516355	5.381697	1.411478
