14
-1349.75
C          0.94079        0.14206        0.10366
C          2.42718       -0.01921       -0.16959
O          2.59096       -0.57285       -1.47247
C          3.14064        1.29443       -0.11589
C          3.91799        1.72416        1.09998
O          4.57095        1.17765       -0.05632
H          0.76422        0.56629        1.09655
H          0.43124       -0.82490        0.03687
H          0.47333        0.79828       -0.63866
H          2.85198       -0.73046        0.54850
H          3.55118       -0.57673       -1.64180
H          2.72827        2.04317       -0.77844
H          3.88328        1.11172        1.99197
H          4.03623        2.78479        1.28383
