17

C	1.147968	0.089785	-1.454257
O	1.464418	0.983007	-0.425164
C	2.817634	1.216467	-0.299678
C	3.496758	2.182665	-1.240629
C	3.234649	2.566879	0.178921
O	4.329272	2.682551	1.009156
C	4.021236	2.452419	2.355144
H	0.053717	-0.009066	-1.487216
H	1.586025	-0.912861	-1.281963
H	1.503443	0.450279	-2.438768
H	3.421707	0.363505	0.047315
H	2.882666	2.658016	-2.009777
H	4.535379	1.981454	-1.514114
H	2.411269	3.273824	0.366537
H	4.950359	2.554581	2.933055
H	3.610522	1.437327	2.517601
H	3.283878	3.182868	2.740747
