12
-1251.81
O          2.63726       -0.55657        1.35105
C          2.42671       -0.02789        0.04949
C          2.91470        1.39699        0.00000
C          2.06394        2.43348       -0.08389
C          4.29716        1.65322        0.00000
C          5.46739        1.87011        0.00000
H          2.39285       -1.49514        1.31426
H          1.35818       -0.09750       -0.17935
H          2.96899       -0.64271       -0.67691
H          0.98913        2.28477       -0.09180
H          2.41967        3.45864       -0.12918
H          6.51439        2.06389        0.00778
