12
-1297.64
C          1.00000        0.00000        0.00000
C          2.44400        0.00000        0.00000
C          3.63416        0.00000        0.00000
C          5.07816        0.00000        0.00000
C          5.56018        1.36117        0.00000
C          5.95746        2.48307        0.00000
H          0.60602        1.02089        0.01168
H          0.60592       -0.52051        0.87826
H          0.60592       -0.50028       -0.88994
H          5.45588       -0.53459       -0.87854
H          5.45588       -0.53459        0.87854
H          6.30709        3.48887        0.00000
