16
-1682.44
C          2.39843       -0.52786       -1.40733
C          2.50942        0.02558        0.00456
C          2.95903        1.44775        0.00357
C          2.23096        2.62136       -0.00589
C          3.15036        3.69681       -0.00182
C          4.41407        3.15492        0.01123
N          4.29077        1.79020        0.01556
H          2.06179       -1.56910       -1.38108
H          3.36417       -0.49597       -1.92322
H          1.68065        0.04645       -2.00304
H          3.20857       -0.58830        0.58481
H          1.53507       -0.04987        0.50164
H          1.15091        2.69448       -0.01592
H          2.91402        4.75339       -0.00775
H          5.39033        3.62138        0.01803
H          5.06172        1.13582        0.02404
