15
-1490.91
O          0.93576       -0.01604        0.05635
C          2.35463       -0.11784        0.06141
C          2.94542        1.28453        0.05562
C          4.47133        1.28445        0.01261
O          4.92495        2.62415       -0.16684
C          5.06561        0.74699        1.24644
C          5.55368        0.31270        2.25330
H          0.58266       -0.92244        0.07024
H          2.66410       -0.67575       -0.82809
H          2.65265       -0.67567        0.95417
H          2.58125        1.84393        0.92824
H          2.55347        1.83995       -0.80701
H          4.82036        0.71014       -0.85217
H          4.70734        3.10799        0.64835
H          5.99346       -0.06975        3.14643
