12
-1270.43
C          1.04428        0.00007        0.09102
C          2.52502        0.01109       -0.06891
N          3.23456       -1.05018       -0.25832
O          4.59825       -0.63689       -0.36863
C          4.67745        0.72954       -0.23990
O          5.70332        1.39051       -0.29152
C          3.30712        1.26178       -0.02649
H          0.66248       -1.02341        0.04923
H          0.58946        0.58690       -0.71133
H          0.77980        0.44418        1.05412
H          3.01022        1.92394       -0.84109
H          3.21651        1.73366        0.95303
