18

C	0.991107	0.012622	0.008594
C	2.505189	0.027272	0.091884
N	3.04465	-1.037217	0.979082
C	3.909632	-0.25155	1.866241
C	4.598468	0.781618	0.939145
C	3.13326	1.25438	0.775774
C	2.967955	0.894507	2.274027
H	0.639982	-0.94662	-0.401117
H	0.622573	0.819208	-0.645386
H	0.534525	0.129736	1.002171
H	2.913943	-0.06369	-0.932317
H	3.595477	-1.705657	0.445085
H	4.455129	-0.859722	2.601887
H	5.124354	0.401747	0.046683
H	5.227287	1.508771	1.473763
H	2.868991	2.240656	0.368643
H	3.447192	1.628745	2.936597
H	1.972857	0.618816	2.653086
