15
-1555.63
C          2.34298       -0.50531       -1.40302
C          2.50440        0.05382       -0.00064
N          2.99787        1.41431       -0.00633
C          2.23964        2.55062       -0.02492
C          3.14990        3.58183       -0.00684
N          4.43271        3.09841        0.02718
C          4.30970        1.79011        0.02975
H          1.96819       -1.53258       -1.36176
H          3.29841       -0.51114       -1.93824
H          1.63652        0.09323       -1.98784
H          3.20769       -0.55497        0.57830
H          1.54486        0.04898        0.52819
H          1.15931        2.53732       -0.05068
H          2.95041        4.64548       -0.01522
H          5.12722        1.08131        0.05479
