16
-1583.81
N          1.42529       -0.38376       -0.35354
C          2.78312        0.00407        0.02807
C          3.69797       -1.05861        0.58488
C          3.97382       -0.46265       -0.75803
O          4.92594        0.62785       -0.82681
C          4.22630        1.83775       -0.49113
C          3.05240        1.43352        0.40352
H          1.04254        0.25286       -1.05110
H          0.79905       -0.34272        0.44917
H          3.34312       -2.08172        0.61213
H          4.36565       -0.80569        1.39994
H          3.81852       -1.07305       -1.63910
H          4.90504        2.53496        0.00773
H          3.87203        2.28974       -1.42367
H          3.33780        1.49689        1.46038
H          2.19736        2.09966        0.24909
