15

C	1.000264	-0.074812	-0.219507
C	2.467277	-0.041481	0.20726
C	3.055503	1.290833	0.160793
C	3.519159	2.413203	0.130917
C	4.026279	3.770093	0.085989
N	5.362502	3.874862	-0.201915
N	3.323155	4.814289	0.32353
H	0.606098	-1.100307	-0.163422
H	0.882294	0.281902	-1.253088
H	0.385858	0.565583	0.429783
H	3.063024	-0.717008	-0.430176
H	2.570355	-0.432311	1.234635
H	5.817209	3.114243	-0.684827
H	5.693792	4.811531	-0.397487
H	2.373592	4.54581	0.576805
