13

C	0.975612	-0.049318	-0.26331
C	2.48446	-0.036461	-0.236736
O	3.128517	-1.045642	-0.391349
C	3.185897	1.281587	-0.008221
C	2.515729	2.435524	0.176866
C	4.615075	1.236304	0.003323
C	5.82676	1.201429	0.01356
H	0.584732	0.607933	-1.055122
H	0.560865	0.300917	0.694573
H	0.643186	-1.077754	-0.447321
H	1.424505	2.472048	0.168805
H	3.047769	3.374613	0.342874
H	6.900515	1.158331	0.021137
