16

O	0.946117	0.177393	-0.62121
C	2.25352	0.085998	-0.178418
C	3.241756	-0.69528	-1.001918
C	3.279931	0.814389	-0.972137
C	2.347194	0.031752	1.317986
C	1.422839	0.821883	2.158887
N	1.194871	-0.601704	1.941675
H	0.451634	-0.426779	-0.04136
H	2.845679	-1.166607	-1.90466
H	4.038359	-1.251298	-0.497585
H	4.097951	1.311839	-0.442479
H	2.91337	1.34424	-1.854823
H	3.345869	-0.179037	1.719404
H	0.698606	1.482701	1.67207
H	1.777371	1.157861	3.139437
H	1.449332	-1.164912	2.74996
