13
-1342.31
C          0.98137        0.02796       -0.00850
N          2.42004        0.01903        0.00068
C          3.23569        1.11103        0.00533
C          4.47672        0.64252        0.00864
O          4.55600       -0.75480        0.00586
C          3.21225       -1.10855       -0.00000
N          2.88684       -2.35021       -0.00518
H          0.58398        1.04877       -0.00003
H          0.58893       -0.49116        0.87204
H          0.60058       -0.47235       -0.90487
H          2.87485        2.12809        0.00586
H          5.41978        1.15682        0.01272
H          1.87136       -2.43033       -0.00902
