15

N	1.205834	0.0415	0.582628
C	2.32677	0.029589	-0.014192
N	2.979833	-1.15049	-0.271501
C	4.114928	-1.305845	-1.14412
C	4.93115	-0.028494	-1.117212
C	3.992265	1.134756	-1.345106
O	2.972225	1.172856	-0.363938
H	0.901733	1.005489	0.713964
H	2.414243	-1.960513	-0.055387
H	4.718652	-2.162754	-0.804131
H	3.810534	-1.524189	-2.189483
H	5.421391	0.087102	-0.137028
H	5.714307	-0.048217	-1.890172
H	4.510014	2.102071	-1.27714
H	3.536211	1.068579	-2.351993
