16
-1599.47
C          0.95796        0.54540       -1.13790
N          2.25663        0.59286       -0.50467
C          3.05738        1.70761       -0.28890
C          2.49057        3.04020       -0.72638
C          4.26531        1.55992        0.28868
C          5.24875        2.62519        0.57349
O          6.30990        2.37248        1.13607
H          0.60812       -0.49044       -1.18681
H          1.00573        0.93416       -2.15962
H          0.22413        1.12119       -0.56591
H          2.64544       -0.30632       -0.22968
H          1.49855        3.19384       -0.28782
H          2.39585        3.06849       -1.81707
H          3.09246        3.89960       -0.42785
H          4.61277        0.57680        0.59197
H          4.99924        3.64595        0.25648
