12
-1329.52
C          0.93714        0.12188       -0.04633
C          2.43456       -0.01032       -0.02366
C          3.10199       -1.17580        0.05493
C          2.45922       -2.50477        0.08208
O          3.12857       -3.52492        0.18498
C          3.19923        1.19703       -0.07146
N          3.81732        2.17724       -0.11011
H          0.62386        1.11950        0.28186
H          0.45434       -0.59138        0.62869
H          0.55716       -0.03329       -1.06109
H          4.18883       -1.21090        0.08531
H          1.36264       -2.53656       -0.00380
