11

C	1.182553	-0.113986	0.007403
O	2.57734	0.194161	0.014657
S	2.925351	1.769448	-0.023585
O	2.520243	2.318511	-1.297871
O	2.495537	2.385168	1.211556
C	4.632635	1.588883	-0.001692
C	5.84175	1.565697	0.011254
H	1.121108	-1.208142	0.034582
H	0.70698	0.264947	-0.910224
H	0.687283	0.310814	0.89393
H	6.918032	1.542119	0.023131
