10
-1009.94
O          0.88271       -0.04198        0.10021
S          2.31212        0.04646        0.31053
O          2.93519       -0.04199        1.61390
C          3.01835        1.28089       -0.64739
C          3.73042        0.68485       -1.61293
N          3.77787       -0.69586       -1.67721
C          3.06167       -1.18738       -0.70627
H          2.88567        2.33182       -0.46709
H          4.28281        1.24396       -2.36224
H          2.92747       -2.26235       -0.52353
