17

C	0.818015	0.033748	-0.458986
C	2.26931	0.06979	-0.048175
C	3.26186	-0.750496	-0.830879
C	3.268177	0.744074	-0.94881
C	2.533294	0.174012	1.423212
C	1.601723	0.771531	2.382581
O	1.753175	-0.628777	2.284884
H	0.719023	-0.196615	-1.529788
H	0.322486	1.001595	-0.281482
H	0.282046	-0.739913	0.111474
H	2.883808	-1.33687	-1.673016
H	4.079483	-1.2298	-0.28444
H	4.094203	1.296811	-0.490048
H	2.889641	1.194672	-1.870578
H	3.604007	0.200729	1.68216
H	0.639769	1.170762	2.038279
H	1.991081	1.232059	3.300753
