13
-1287.26
C          0.91673       -1.04166        0.94562
C          1.15978       -0.32836       -0.34719
C          0.87324        1.13127       -0.49758
O         -0.25325        1.49735        0.31402
N         -1.41864        0.74343        0.00957
C         -1.18631       -0.51823       -0.18482
N          0.00384       -1.22726       -0.19386
H          1.49395       -1.92875        1.16564
H          0.48618       -0.52276        1.79175
H          1.91137       -0.70151       -1.02736
H          1.73252        1.72069       -0.16469
H          0.66176        1.38872       -1.54130
H         -2.03562       -1.17463       -0.43605
