19
-1847.67
C          1.10840        0.00912       -0.10882
C          2.59898        0.06364       -0.11853
C          3.37615       -0.56017       -1.24725
C          3.38642        0.94877       -1.07822
C          2.64917        1.78385       -2.09750
C          4.64056        1.60100       -0.54323
O          5.61061        1.68519       -1.57723
H          0.70194        0.91375        0.35320
H          0.77250       -0.85111        0.47864
H          0.68123       -0.08944       -1.11084
H          2.98989       -0.05806        0.88726
H          2.82901       -0.98396       -2.08305
H          4.26689       -1.12324       -0.98951
H          1.83340        1.23504       -2.57708
H          3.32727        2.10986       -2.89210
H          2.22702        2.67391       -1.62072
H          5.07720        1.03577        0.28659
H          4.42617        2.61317       -0.18467
H          5.70381        0.79005       -1.94455
