17

C	0.956565	0.024796	-0.010594
C	2.465113	0.016516	0.065897
C	3.195488	1.062644	0.928651
C	4.198838	-0.029982	1.329928
C	3.17023	-1.101806	0.888115
C	3.700224	-2.272053	0.108487
O	4.417095	-2.145906	-0.851043
H	0.574944	-0.849066	-0.562456
H	0.593471	0.928023	-0.526777
H	0.506898	0.01257	0.995576
H	2.90914	0.0034	-0.943829
H	2.573675	1.378067	1.782342
H	3.58179	1.963674	0.428169
H	5.069063	-0.053366	0.657198
H	4.544299	-0.067414	2.373215
H	2.541193	-1.439764	1.727123
H	3.393746	-3.293852	0.454428
