15

C	0.928448	-0.005033	-0.013309
C	2.423779	0.005592	-0.008324
C	3.145375	1.133491	-0.14669
O	4.487531	1.208927	-0.145374
C	5.28894	0.030569	-0.097127
C	4.517295	-1.230666	0.142948
C	3.178338	-1.234121	0.173191
H	0.531375	-0.633257	-0.829183
H	0.515824	1.006345	-0.141041
H	0.52494	-0.414283	0.928888
H	2.695462	2.124012	-0.262264
H	6.041833	0.185483	0.69886
H	5.85827	-0.034167	-1.047497
H	5.097568	-2.147365	0.280178
H	2.630993	-2.166286	0.342403
