16

C	1.100866	-0.321449	1.258738
N	2.299206	-0.091319	0.492743
C	2.706082	1.289562	0.436326
C	3.998398	1.442806	-0.333404
O	5.061108	0.730784	0.316258
C	5.764483	1.391074	1.235145
O	5.599609	2.529371	1.567123
H	0.874374	-1.397875	1.293215
H	0.243033	0.174573	0.774646
H	1.142309	0.053332	2.305438
H	3.067576	-0.651279	0.85506
H	2.828622	1.76627	1.435467
H	1.930407	1.876844	-0.087791
H	4.274552	2.502596	-0.430241
H	3.907255	0.979586	-1.324794
H	6.543129	0.715052	1.648481
