14
-1457.91
O          1.19858       -0.00184        0.26981
C          2.50856        0.19122       -0.26523
C          2.61310       -0.58179       -1.58146
C          3.99358       -0.62097       -2.07337
N          5.08632       -0.66022       -2.46019
C          2.69352        1.67373       -0.43004
C          3.66231        2.38540        0.16118
H          1.13752        0.54863        1.07123
H          3.21875       -0.21550        0.46554
H          1.94875       -0.14369       -2.33786
H          2.24983       -1.60546       -1.42969
H          1.98254        2.18896       -1.07401
H          4.40211        1.92515        0.80995
H          3.74298        3.45649       -0.00209
