15

N	1.245182	1.461494	-0.49439
C	2.484509	1.712338	0.04409
N	2.796313	2.407016	1.061009
O	3.414494	1.032637	-0.659856
C	4.733943	1.134195	-0.210766
C	5.76944	0.739846	-1.203309
C	5.604553	2.186172	-0.808745
H	1.230208	1.085703	-1.433428
H	0.502352	2.106315	-0.267035
H	1.97417	2.832402	1.48568
H	4.857338	0.889414	0.848187
H	5.407763	0.445719	-2.192021
H	6.642175	0.184146	-0.850744
H	6.356031	2.658682	-0.171135
H	5.134628	2.85344	-1.535567
