16
-1565.33
C          2.29988        2.13968        0.57220
C          3.26689        2.49419        1.42746
O          4.56955        2.81207        1.17174
C          4.98659        2.81769       -0.19660
C          6.42974        3.22156       -0.24138
C          7.51482        2.18298       -0.35241
N          7.19271        3.05215       -1.48202
H          1.30504        1.91573        0.94407
H          2.45405        2.05602       -0.49613
H          3.08530        2.56452        2.49502
H          4.39766        3.55130       -0.75899
H          4.84738        1.82178       -0.63397
H          6.62493        4.12713        0.32075
H          7.23611        1.14165       -0.46329
H          8.45857        2.36208        0.14838
H          7.88956        3.79418       -1.57837
