14
-1399.93
C         -1.00137        0.00011       -1.29644
C         -0.55697        0.97854       -0.12952
O         -1.37266        0.00005        0.72771
C         -0.55690       -0.97869       -0.12959
C          0.92477       -0.78758        0.23926
N          1.87733       -0.00011       -0.51155
C          0.92533        0.78708        0.23931
H         -2.06642        0.00017       -1.54690
H         -0.39636        0.00006       -2.20426
H         -0.97762        1.98511       -0.12311
H         -0.97794       -1.98504       -0.12325
H          1.19416       -1.26813        1.17066
H          1.67938       -0.00008       -1.51181
H          1.19441        1.26764        1.17079
