16
-1610.75
C          1.14790        0.14914        0.07267
C          2.64411       -0.11367       -0.04849
C          2.95689       -0.81085       -1.30891
C          3.20921       -1.38870       -2.33231
C          3.42000        1.17477       -0.13230
C          3.71638        1.96049        1.12376
N          4.77629        1.25119        0.42045
H          0.92220        0.69105        0.99743
H          0.58423       -0.79029        0.08299
H          0.77406        0.75283       -0.76283
H          2.97493       -0.71860        0.80436
H          3.43956       -1.90274       -3.23623
H          3.22403        1.74467       -1.03555
H          3.42881        1.54694        2.08254
H          3.73423        3.04165        1.06827
H          5.35022        1.88743       -0.13604
