20
-1916.82
C          1.06127       -0.07656        0.02079
C          2.55115       -0.03191       -0.01649
C          3.35413       -0.68412       -1.12243
C          2.71454       -1.41114       -2.25602
C          3.26130        0.82557       -1.04148
C          4.44784        1.64107       -0.64472
N          5.26608        1.84105       -1.83027
H          0.68425        0.67230        0.72468
H          0.72221       -1.06058        0.35913
H          0.60840        0.12696       -0.95427
H          2.96534       -0.08918        0.98524
H          4.28546       -1.15982       -0.83216
H          1.85555       -0.87480       -2.66975
H          2.37821       -2.39904       -1.92738
H          3.43946       -1.55088       -3.06393
H          2.65055        1.34528       -1.77356
H          5.03709        1.14595        0.13489
H          4.11792        2.60944       -0.25555
H          5.57261        0.93301       -2.17605
H          6.11066        2.34673       -1.57026
