19
-1922.25
C          1.71062       -0.14406       -0.04080
C          0.82151       -1.25326        0.51395
C         -0.43223       -1.53803       -0.30988
C         -1.54002       -0.53304       -0.16654
C         -1.43514        0.76250        0.16962
C         -0.17584        1.56019        0.35639
C          0.99651        1.11831       -0.51689
H          2.30049       -0.53950       -0.87779
H          2.43791        0.12798        0.73517
H          1.42195       -2.16994        0.57180
H          0.54046       -1.01553        1.54795
H         -0.83212       -2.50192        0.03281
H         -0.18472       -1.66476       -1.37033
H         -2.54129       -0.93289       -0.32046
H         -2.35854        1.32935        0.28440
H          0.10160        1.57530        1.41703
H         -0.41142        2.59744        0.08346
H          1.73443        1.92933       -0.55753
H          0.65409        0.97541       -1.54994
