12
-1268.92
O          0.80851        0.42303        0.32152
N          2.16579        0.08491        0.38133
C          2.87206        1.15091        0.19259
C          4.34505        1.11139        0.19955
C          5.03793        2.23855        0.00000
C          6.44393        2.23855        0.00000
C          7.63409        2.23855        0.00000
H          0.37284       -0.43637        0.47369
H          2.40074        2.13523        0.01834
H          4.81277        0.14868        0.36997
H          4.53618        3.18702       -0.16789
H          8.69944        2.23704        0.00027
