14
-1335.94
N          0.95305       -0.05132        0.21663
C          2.40902       -0.01429       -0.02340
C          2.97739        1.43282        0.00000
N          2.46948        2.16149        1.17068
C          4.42139        1.43282        0.00000
C          5.61155        1.43282        0.00000
H          0.63464       -1.01908        0.15223
H          0.47985        0.45011       -0.53719
H          2.62849       -0.48502       -0.98870
H          2.89099       -0.62222        0.75118
H          2.60972        1.95668       -0.89059
H          2.88600        1.74491        2.00282
H          1.48007        1.90213        1.24604
H          6.67702        1.44480        0.00504
