13
-1304.18
C          0.96260        0.04811        0.00955
C          2.44040        0.00295       -0.05210
C          3.30530        1.02537       -0.10230
N          4.65419        0.77607       -0.17293
S          4.93013       -0.86535        0.00842
C          3.21185       -1.25554       -0.01242
N          2.78899       -2.46639        0.02098
H          0.59325        1.07881        0.02385
H          0.59897       -0.45012        0.91372
H          0.52725       -0.45218       -0.86113
H          3.01583        2.07058       -0.09533
H          5.25215        1.44542        0.30790
H          1.76752       -2.48915        0.00295
