19

C	0.60899	-1.037483	0.19799
C	2.106934	-0.936562	-0.061245
C	2.57007	-1.94675	-1.103546
C	2.509229	0.476926	-0.479719
N	2.223621	1.447863	0.54604
N	2.040151	2.710319	0.175165
C	2.151129	3.65615	1.023866
H	0.281575	-0.28028	0.925434
H	0.334705	-2.032036	0.58229
H	0.043111	-0.87089	-0.733828
H	2.636597	-1.164057	0.885277
H	2.087233	-1.753597	-2.076089
H	2.310311	-2.973771	-0.804468
H	3.65987	-1.905632	-1.257783
H	1.939573	0.782995	-1.371806
H	3.580491	0.485156	-0.768905
H	2.670534	1.284723	1.451593
H	1.945573	4.676608	0.690242
H	2.433514	3.491548	2.079974
