21
-2048.73
C          3.40719        2.44743       -2.14874
C          3.47481        2.66700       -0.64445
C          4.25013        1.57163        0.09600
C          5.70292        1.43000       -0.30942
C          6.16541        0.27727       -0.82437
C          6.62048        2.61899       -0.12126
C          6.77856        3.03048        1.33600
H          2.78123        3.21656       -2.61238
H          2.97282        1.47058       -2.38350
H          4.39875        2.50466       -2.60778
H          2.45191        2.69346       -0.24917
H          3.91077        3.65118       -0.43845
H          3.72299        0.61921       -0.04854
H          4.20171        1.77080        1.17339
H          5.51872       -0.58346       -0.96641
H          7.20397        0.16066       -1.11940
H          6.24812        3.46851       -0.70497
H          7.61747        2.39533       -0.52239
H          5.83536        3.39506        1.75463
H          7.51136        3.83956        1.41951
H          7.12719        2.19305        1.94912
