12

C	3.126618	-1.165803	0.528623
O	2.387969	-0.004103	0.260125
C	3.055564	1.145075	0.111813
N	2.35722	2.223938	-0.145106
S	3.373086	3.516726	-0.28794
C	4.801464	2.625892	-0.000208
C	4.478727	1.311412	0.208846
H	2.402812	-1.986196	0.612048
H	3.68452	-1.088389	1.478598
H	3.835667	-1.399937	-0.285519
H	5.791601	3.08293	0.005854
H	5.202821	0.525814	0.417165
