10
-1067.19
C          0.92695       -0.01184        0.01052
C          2.41993        0.00548        0.01818
C          3.13902        1.13799        0.00000
C          4.54502        1.13799        0.00000
N          5.69603        1.13799        0.00000
H          0.56605       -1.04540       -0.04328
H          0.53161        0.52353       -0.85888
H          0.52692        0.43488        0.92582
H          2.92099       -0.96111        0.03635
H          2.64602        2.10402       -0.01781
