15
-1455.5
C          1.23669       -0.04810       -0.25622
N          2.69327       -0.01062       -0.32124
C          3.31477       -1.20977        0.26154
C          4.71738       -0.69803        0.57785
O          5.65854       -1.01236       -0.43483
C          4.43991        0.77730        0.58547
N          3.30116        1.13455        0.08894
H          0.84649       -0.97206       -0.69642
H          0.80902        0.78815       -0.81984
H          0.88337        0.02448        0.77830
H          3.31484       -2.04514       -0.44490
H          2.80987       -1.50259        1.18939
H          5.08691       -1.03171        1.54997
H          5.25689       -0.72608       -1.27704
H          5.18551        1.48319        0.97697
