15
-1545.09
C          0.34871        0.27965       -0.01286
C          1.66381       -0.44585       -0.00971
C          1.71981       -1.78701       -0.06095
O          2.74022        0.41125        0.04848
C          4.05423       -0.14682        0.05245
C          5.04053        0.94267        0.11265
C          5.84851        1.82849        0.16134
H          0.29707        0.96278       -0.86694
H          0.23945        0.86531        0.90570
H         -0.50380       -0.40439       -0.07890
H          0.80928       -2.37804       -0.10514
H          2.64628       -2.34736       -0.06071
H          4.21466       -0.72858       -0.86269
H          4.17996       -0.79671        0.92621
H          6.56217        2.61970        0.20446
