17
-1711.81
C          4.19026       -0.96901       -0.47360
C          2.93414       -0.21868       -0.04499
O          2.50965       -0.73351        1.21379
C          3.05837        1.27294        0.10564
C          4.16029        2.01235       -0.08534
C          4.18699        3.44486        0.08648
C          5.29670        4.17163       -0.09173
H          4.53271       -0.64680       -1.46202
H          3.99465       -2.04613       -0.51006
H          5.00454       -0.82853        0.24646
H          2.13700       -0.42923       -0.76635
H          3.17503       -0.46188        1.86943
H          2.12976        1.76515        0.39784
H          5.09438        1.54148       -0.38136
H          3.26572        3.94619        0.37450
H          6.24271        3.72191       -0.37772
H          5.28087        5.24674        0.04821
