15
-1573.5
C          0.81378        0.14979       -0.00794
C          2.30129        0.07252       -0.00054
C          3.21533        1.10491        0.00439
C          4.55977        0.63361        0.01106
C          4.63107       -0.74412        0.01092
C          5.85313       -1.59737        0.01680
S          3.07502       -1.45302        0.00217
H          0.47617        1.19158        0.00079
H          0.39416       -0.34502        0.87420
H          0.40450       -0.32707       -0.90468
H          2.93596        2.15164        0.00341
H          5.43183        1.27648        0.01583
H          5.61777       -2.66642        0.02688
H          6.46082       -1.37896        0.90109
H          6.45824       -1.39463       -0.87295
