13
-1295.84
N          0.98560        0.03015       -0.13254
C          2.43746        0.03051       -0.00301
C          3.01147       -1.22619        0.68739
O          3.67806       -0.83432        1.90777
C          3.54638        0.53522        1.93482
C          2.88026        1.08929        0.92841
H          0.69051       -0.76618       -0.69228
H          0.69188        0.86379       -0.63655
H          2.89033        0.15661       -0.99231
H          3.74631       -1.72094        0.04214
H          2.23821       -1.96364        0.93579
H          3.99493        1.01763        2.78748
H          2.69302        2.14305        0.81301
