19
-1843.18
C          4.36073       -0.13727        2.13861
O          3.68408        1.11327        2.10810
C          3.46946        1.59711        0.77978
C          2.35798        2.63946        0.85069
C          4.73823        2.22551        0.27280
C          5.37247        1.85450       -0.85160
C          6.64192        2.47520       -1.33607
H          4.44615       -0.45357        3.18197
H          5.36899       -0.04929        1.72347
H          3.79228       -0.89659        1.59259
H          3.13425        0.77703        0.13276
H          2.61458        3.45101        1.54196
H          1.43746        2.18495        1.23383
H          2.14701        3.07160       -0.13321
H          5.15268        3.02167        0.88972
H          4.96477        1.05273       -1.46327
H          6.98122        3.28668       -0.68485
H          6.49720        2.88213       -2.34123
H          7.43174        1.71946       -1.38065
