18
-1758.43
C          0.98168        0.02912        0.06702
C          0.73722        0.34386        1.51483
C         -0.07061        1.55452        1.91300
C         -0.64155        0.17650        2.10407
N          2.24496        0.66152       -0.32272
C          3.34749       -0.28122       -0.50175
C          2.65021        0.33080       -1.68645
H          0.97830       -1.06011       -0.06466
H          0.16946        0.43052       -0.55136
H          1.57660        0.06370        2.14273
H         -0.48740        2.17739        1.12933
H          0.24730        2.10445        2.79107
H         -0.71566       -0.20420        3.11657
H         -1.45175       -0.13107        1.45390
H          3.18441       -1.33054       -0.28845
H          4.33103        0.09126       -0.24147
H          3.16158        1.11841       -2.22646
H          1.99501       -0.29051       -2.28430
