15
-1539.55
O          2.26437        1.74519       -0.57550
C          2.60931        1.08590       -1.70348
O          1.83792        0.97313       -2.64675
C          3.97753        0.44144       -1.66544
C          5.03651        1.24621       -0.96166
C          5.45247        0.91981        0.45164
C          6.38073        0.61953       -0.69175
H          2.95420        1.72617        0.11439
H          4.29867        0.29865       -2.70377
H          3.86358       -0.54924       -1.21084
H          5.04776        2.28281       -1.28567
H          5.00368        0.07299        0.95965
H          5.72242        1.73753        1.11153
H          7.26316        1.24040       -0.80764
H          6.53796       -0.41928       -0.96201
