13
-1407.52
O          1.24226        0.24100        0.48691
C          2.28647       -0.05423       -0.06664
O          2.57458       -1.25255       -0.65493
C          3.91133       -1.24411       -1.19479
C          4.49168        0.10296       -0.92889
C          3.91089        1.35559       -1.52900
C          3.43935        0.85744       -0.18788
H          4.48457       -2.03282       -0.69695
H          3.86028       -1.46009       -2.26652
H          5.50666        0.09736       -0.56270
H          4.52827        2.24602       -1.54641
H          3.23878        1.26804       -2.37565
H          3.71932        1.40592        0.70064
