13

N	1.251587	-0.086582	-0.682254
C	2.322415	0.092305	-0.012966
N	2.88274	1.326486	0.110081
O	4.052475	1.450698	0.854564
C	4.434443	2.8305	0.817152
C	3.375752	3.492568	-0.015621
C	2.504667	2.54728	-0.3916
H	0.989245	-1.070258	-0.660523
H	2.915118	-0.665592	0.526908
H	5.450591	2.912278	0.38185
H	4.484674	3.218719	1.854026
H	3.340286	4.550801	-0.263464
H	1.599617	2.589138	-0.995113
