19
-1780.49
C          1.17788        1.06624       -0.87095
N          2.41881        1.25324       -0.13206
C          3.50215        1.65436       -1.02451
C          4.72844        1.84795       -0.18663
C          5.70913        0.72112        0.01485
C          6.08306        1.89692       -0.84223
N          7.08491        2.84204       -0.35836
H          0.37654        0.80044       -0.17527
H          1.26724        0.26074       -1.60670
H          0.87749        1.98644       -1.38201
H          2.67305        0.37830        0.32583
H          3.26023        2.60206       -1.51903
H          3.66978        0.89574       -1.79874
H          4.54751        2.52375        0.64283
H          5.53078       -0.22511       -0.48511
H          6.17175        0.61751        0.98918
H          6.12645        1.71651       -1.91473
H          7.05006        2.93239        0.65696
H          6.90173        3.77631       -0.72349
