9
-1089.61
C          1.00000        0.00000        0.00000
C          2.19016        0.00000        0.00000
C          3.63416        0.00000        0.00000
C          4.13408       -0.70738       -1.15535
N          4.53257       -1.27123       -2.07627
C          4.11618        1.36117        0.00000
N          4.50039        2.44616        0.00000
H         -0.06532        0.00325       -0.00554
H          3.99108       -0.50354        0.90648
