13

N	1.136869	-0.066677	0.469273
C	2.334167	-0.023907	0.060176
C	3.142217	1.250917	-0.07661
C	4.469779	0.828316	-0.703226
C	4.422604	-0.688201	-0.770993
O	5.283823	-1.442183	-1.140821
N	3.166953	-1.066241	-0.331848
H	0.775701	-1.023172	0.499311
H	3.263239	1.692012	0.923921
H	2.57528	1.977415	-0.674971
H	4.610822	1.205428	-1.727755
H	5.359384	1.131703	-0.133211
H	2.896661	-2.04337	-0.316288
