11
-1261.18
C          0.97532       -0.03120       -0.00260
C          2.17488        0.00092        0.00043
C          3.59574        0.03589        0.00408
C          4.40511        1.14494        0.00353
N          5.67785        0.64238        0.00819
C          5.58248       -0.72199        0.01125
N          4.32972       -1.11863        0.00886
H         -0.08883       -0.07041       -0.00526
H          4.19705        2.20486        0.00041
H          6.53649        1.17562        0.00922
H          6.45172       -1.36625        0.01517
