11

N	0.926745	0.006967	-0.216893
C	2.308425	0.004881	-0.073697
C	3.166039	1.071739	-0.003912
O	4.452863	0.638133	0.055759
C	4.42712	-0.700184	0.033554
C	3.146433	-1.16057	-0.047767
H	0.484902	0.879456	0.048367
H	0.470866	-0.77185	0.244276
H	3.013267	2.147528	-0.001435
H	5.388689	-1.205989	0.080478
H	2.827539	-2.199951	-0.093801
