15
-1418.92
N          1.06308        3.03093        2.03611
C          2.13007        2.52003        1.52595
N          3.28311        3.21321        1.33789
O          3.93131        2.83367        0.16474
C          5.18890        3.53749        0.12872
C          5.75231        3.77284       -1.24579
C          5.16031        4.91599       -0.47478
H          0.33147        2.31268        2.07655
H          2.17778        1.46384        1.20734
H          3.12791        4.21516        1.41691
H          5.90468        3.33742        0.91974
H          5.19861        3.38950       -2.09507
H          6.82881        3.74165       -1.36387
H          5.83461        5.65988       -0.06626
H          4.20814        5.31098       -0.80960
