15
-1650.55
C          0.94386        0.06096       -0.00635
C          2.42713        0.03432       -0.00235
C          3.27972        1.08086        0.00308
C          4.64803        0.59362        0.00545
C          4.64566       -0.75085        0.00159
C          3.25443       -1.16647       -0.00345
C          2.83875       -2.43615       -0.00815
H          0.56469        1.08835       -0.00244
H          0.54476       -0.44446        0.87892
H          0.54982       -0.43592       -0.89869
H          3.01255        2.12638        0.00535
H          5.51821        1.23126        0.00965
H          5.50362       -1.40264        0.00210
H          1.78459       -2.68999       -0.01176
H          3.54492       -3.25985       -0.00848
