12

C	0.993164	-0.040658	-0.007271
C	2.467291	0.10608	0.000745
C	3.302301	1.187043	0.004026
C	4.636108	0.667055	0.010447
C	4.504161	-0.687738	0.011292
O	3.198625	-1.032503	0.005373
H	0.517291	0.948123	-0.002754
H	0.641498	-0.599227	0.875183
H	0.649413	-0.586865	-0.900613
H	2.997463	2.231481	0.001828
H	5.568057	1.228338	0.014383
H	5.218008	-1.50769	0.015721
