11
-1104.19
C          1.00000        0.00000        0.00000
C          2.44400        0.00000        0.00000
C          3.63416        0.00000        0.00000
C          5.07816        0.00000        0.00000
O          5.56764        1.33502       -0.02459
H          0.60597        1.02087        0.01168
H          0.60591       -0.52053        0.87825
H          0.60592       -0.50029       -0.88993
H          5.47698       -0.52468       -0.87342
H          5.47628       -0.48739        0.89451
H          5.07594        1.79587       -0.72565
