14
-1507.77
C          1.40902       -0.30508       -1.08296
C          2.28248       -0.01338       -0.10752
C          3.05504        1.28345        0.00000
C          2.66110        2.02040        1.26191
C          2.08521        3.23146        1.29288
C          4.47486        1.02030        0.00000
N          5.60660        0.81055        0.00000
H          0.89167       -1.26075       -1.09630
H          1.18784        0.39126       -1.88668
H          2.45858       -0.75834        0.66792
H          2.81930        1.91247       -0.86903
H          2.86836        1.52242        2.20887
H          1.85368        3.78351        0.38671
H          1.83270        3.70092        2.23980
