13
-1412.17
C          1.07745       -0.05017       -0.17141
C          2.38468       -0.03534        0.08557
N          3.22729       -1.07789        0.33450
C          4.49336       -0.62095        0.54934
N          5.54556       -1.30630        0.81237
C          4.49423        0.85640        0.43197
C          3.21219        1.15872        0.15433
H          0.52342       -0.98190       -0.20689
H          0.52482        0.86475       -0.35291
H          2.92494       -2.03594        0.35171
H          5.30082       -2.29836        0.84285
H          5.35166        1.49010        0.55142
H          2.83547        2.15860        0.00044
