13

C	0.956139	-1.077024	-0.016793
C	2.055995	-0.046008	0.023581
O	1.464837	1.229918	0.120903
C	2.275725	2.297214	0.170205
C	3.613584	2.325334	0.137477
H	1.381202	-2.088493	-0.09309
H	0.299341	-0.908573	-0.883017
H	0.342145	-1.024986	0.894548
H	2.683386	-0.097887	-0.887169
H	2.72686	-0.212909	0.888421
H	1.68624	3.216481	0.246021
H	4.232859	1.430457	0.062039
H	4.120056	3.289704	0.188226
