17
-1621.02
C          1.43596       -0.88008        0.73581
C          2.22668       -1.02604       -0.55923
C          2.53976       -2.49172       -0.83461
O          1.39954       -0.49966       -1.61919
C          1.91791       -0.01663       -2.76309
N          0.96627        0.51844       -3.54856
N          3.14855       -0.06688       -3.11635
H          1.19238        0.17267        0.91585
H          2.00185       -1.25835        1.59253
H          0.48269       -1.41730        0.67837
H          3.14677       -0.43824       -0.46750
H          1.61836       -3.07336       -0.94985
H          3.13048       -2.92858       -0.02354
H          3.09916       -2.60755       -1.76807
H          0.04100        0.14196       -3.39750
H          1.25071        0.58775       -4.51677
H          3.72171       -0.51725       -2.40725
