19
-1791.17
C          2.13694       -0.60862        1.36859
C          2.61589       -0.10021        0.01011
N          1.54129       -0.19378       -0.97423
C          3.06648        1.32822        0.09875
C          4.32497        1.73624       -0.14331
C          4.77970        3.15568       -0.07300
N          5.85941        3.26746        0.89525
H          2.94346       -0.55972        2.10868
H          1.81100       -1.65270        1.30228
H          1.29647       -0.01820        1.75199
H          3.44259       -0.73636       -0.32830
H          0.70377        0.25547       -0.60905
H          1.29549       -1.17372       -1.10451
H          2.31457        2.06323        0.37593
H          5.07955        1.00837       -0.43396
H          3.96291        3.83007        0.20621
H          5.14239        3.46536       -1.05865
H          5.49337        3.03993        1.81846
H          6.15921        4.23918        0.94316
