15
-1450.2
C          1.56763        2.67440       -1.25030
C          2.84624        1.96870       -0.92817
N          3.93018        2.63456       -0.69840
N          4.99151        1.77637       -0.42984
C          6.07618        2.45233       -0.21733
C          7.36755        1.74795        0.12981
O          7.36702        0.38083       -0.23125
H          1.21397        2.33549       -2.22732
H          1.71100        3.75747       -1.26694
H          0.81967        2.41345       -0.49757
H          2.81542        0.86485       -0.89598
H          6.09612        3.55670       -0.22669
H          7.53308        1.83900        1.20707
H          8.18883        2.24939       -0.38913
H          6.43916        0.08440       -0.15239
