19
-1777.9
C          2.15035       -0.22045        0.46278
C          2.82054       -0.50785       -0.88647
C          2.01276       -1.55829       -1.69273
N          1.96078       -2.87287       -1.04384
N          2.88590        0.75653       -1.64934
C          4.08620        1.54567       -1.37183
C          3.93570        0.78563       -2.66390
H          2.70644        0.53517        1.02830
H          2.10872       -1.12235        1.08208
H          1.12493        0.14379        0.33080
H          3.82221       -0.91638       -0.68980
H          2.46046       -1.69063       -2.68491
H          0.98615       -1.20467       -1.84677
H          2.90340       -3.25121       -0.96696
H          1.44249       -3.51535       -1.64173
H          4.79461        1.18157       -0.63906
H          3.95636        2.61976       -1.39493
H          3.70510        1.34992       -3.55993
H          4.54004       -0.09926       -2.81791
