17

C	2.498818	-0.513232	1.398426
C	2.629122	0.062517	-0.010489
C	3.077111	1.484552	-0.027373
N	4.200533	1.854328	-0.521709
N	4.380962	3.195276	-0.293808
C	3.087415	3.811592	-0.003744
C	2.33591	2.63556	0.618745
H	2.165391	-1.561487	1.367068
H	1.766685	0.04844	2.000392
H	3.463918	-0.479053	1.927261
H	1.65406	-0.013216	-0.525891
H	3.351526	-0.52173	-0.600286
H	4.930463	3.621299	-1.032355
H	2.57454	4.144953	-0.929277
H	3.194081	4.678949	0.66389
H	1.253973	2.636333	0.418051
H	2.470272	2.598291	1.716398
