15

N	2.879278	-0.526516	1.233338
C	2.38009	0.116686	0.032982
C	2.805533	1.560198	-0.052603
C	1.898157	2.550983	-0.079294
N	4.169535	1.833031	-0.122986
C	5.23349	0.967912	-0.064675
O	6.376407	1.335954	-0.199194
H	2.600705	-1.504265	1.260579
H	2.494633	-0.080255	2.063368
H	1.27876	0.099219	-0.079297
H	2.787982	-0.420807	-0.842535
H	0.832519	2.322852	-0.037501
H	2.193067	3.600939	-0.156126
H	4.441912	2.804014	-0.250712
H	4.937021	-0.079845	0.145255
