15
-1505.25
C         -1.08008        0.03688       -1.00938
C         -0.62261        1.05411        0.07662
C         -1.05702       -0.03648        1.10200
C         -0.55731       -1.03708        0.00596
C          0.99836       -1.10240       -0.03765
N          1.65701        0.01506       -0.02662
N          0.85949        1.12191        0.09662
H         -2.16304        0.00758       -1.18294
H         -0.57569        0.08527       -1.97880
H         -1.13808        2.01501        0.12711
H         -0.53062       -0.05308        2.06076
H         -2.13535       -0.07708        1.29707
H         -1.05121       -2.01034       -0.02136
H          1.49567       -2.08112       -0.10543
H          1.29427        1.94888       -0.31743
