15
-1430.45
N          0.96077        0.03895       -0.25318
C          2.40122       -0.00766       -0.01096
C          3.26235       -0.80240       -0.94548
C          3.33288        0.70424       -0.96107
C          4.51271        1.40361       -0.41839
N          5.66710        1.14766       -0.93489
O          6.63599        1.91562       -0.27799
H          0.52701        0.80861        0.25619
H          0.51021       -0.81161        0.08508
H          2.68411       -0.03869        1.03977
H          2.79984       -1.28784       -1.79695
H          4.10058       -1.34982       -0.52949
H          2.88781        1.19757       -1.81923
H          4.36046        2.12450        0.40357
H          7.45435        1.65749       -0.74227
