17
-1625.54
C          0.95679       -0.17821        0.11479
C          0.52903       -0.11672        1.55366
C         -0.80318        0.47906        1.92789
N         -0.57669       -0.96154        2.01788
N          1.74778        1.02632       -0.17120
C          3.17671        0.76967       -0.34124
C          2.29139        1.03534       -1.52801
H          1.50956       -1.11147       -0.05282
H          0.08009       -0.20014       -0.54474
H          1.36237       -0.00872        2.23782
H         -1.46695        0.80788        1.13755
H         -0.88178        1.02329        2.86038
H         -0.42988       -1.24220        2.98935
H          3.55544       -0.23421       -0.19199
H          3.83978        1.56217       -0.01503
H          2.35225        2.00764       -2.00157
H          2.04655        0.21306       -2.18909
