17
-1673.89
C         -1.78793        0.94655        0.36075
C         -1.41227       -0.42709       -0.11912
C         -0.35917       -1.32369        0.40249
C          0.74340       -0.68024       -0.35427
C          2.01758       -0.11621        0.10288
C          0.83332        0.82103        0.03380
C         -0.60802        0.78453       -0.57458
H         -2.69102        1.39137       -0.04319
H         -1.61030        1.18783        1.40154
H         -2.04805       -0.90756       -0.85378
H         -0.24282       -1.25168        1.48745
H         -0.50794       -2.36635        0.10990
H          0.75790       -1.00075       -1.39742
H          2.38909       -0.41452        1.07630
H          2.80394        0.03345       -0.62933
H          0.76478        1.24831        1.03828
H         -0.73226        1.13215       -1.59682
