11

N	0.919317	0.079187	-0.009122
C	2.079411	0.046812	-0.004745
C	3.499232	0.001569	0.00062
C	4.343439	1.103449	0.004062
N	5.61667	0.637457	0.008904
C	5.626638	-0.73171	0.008632
C	4.323448	-1.166209	0.003456
H	4.109175	2.165112	0.003377
H	6.441541	1.221254	0.012285
H	6.558874	-1.291377	0.012152
H	3.979675	-2.197335	0.001879
