12
-1217.97
C          1.12729       -0.03062       -0.09161
N          2.58141       -0.04216        0.03374
C          3.25257       -0.69070       -1.08385
C          3.26142        0.81854       -0.94384
C          4.49950        1.46427       -0.59808
N          5.50330        1.99392       -0.35578
H          0.70951        0.72298        0.58372
H          0.72288       -1.00357        0.20685
H          0.76185        0.18763       -1.10270
H          2.65025       -1.13341       -1.86648
H          4.14827       -1.24744       -0.83075
H          2.63756        1.38119       -1.62928
