16

C	1.036274	-0.562989	-0.279165
C	1.653938	0.552193	0.561426
C	2.95475	1.062869	-0.021826
N	3.10385	2.173576	-0.640395
N	4.030105	0.208417	0.056815
C	4.224661	-0.779997	1.082387
H	0.088122	-0.910662	0.157052
H	1.710523	-1.428392	-0.364241
H	0.831476	-0.207598	-1.300112
H	1.813087	0.20412	1.596055
H	0.960211	1.403859	0.630008
H	2.2137	2.669007	-0.689883
H	4.867468	0.632788	-0.326853
H	4.334103	-0.35968	2.101359
H	5.137963	-1.349813	0.859418
H	3.398049	-1.507089	1.106945
