14
-1423.43
N          1.46120        2.36990       -0.31463
C          2.61976        1.75367       -0.63643
O          2.69486        0.86938       -1.47240
O          3.62685        2.26546        0.09944
C          4.92275        1.69853       -0.12491
C          5.87264        2.83042       -0.37500
C          6.95877        3.09776        0.36195
H          1.45339        3.08525        0.39570
H          0.61233        2.09400       -0.78318
H          4.95483        1.01104       -0.97672
H          5.19923        1.13807        0.77488
H          5.64576        3.46253       -1.23045
H          7.22886        2.49541        1.22362
H          7.60287        3.93598        0.11368
