14
-1410.5
N          3.01044       -1.16501       -0.34976
C          2.34229        0.04308        0.11486
C          3.34480        1.11775        0.37080
O          3.62424        1.98171       -0.73787
C          2.91877        2.56488        0.36909
C          3.69481        3.52558        1.09020
C          4.34485        4.33420        1.69607
H          2.31581       -1.88648       -0.53411
H          3.61811       -1.53050        0.38077
H          1.79596       -0.17480        1.03858
H          1.60965        0.35891       -0.63600
H          4.16303        0.81613        1.01051
H          1.87141        2.79622        0.21611
H          4.92731        5.05170        2.22530
