17
-1700.7
C          0.92414        0.08738        0.40596
C          2.36413        0.15201       -0.09917
C          3.27805        1.09009        0.72063
C          3.92637       -0.19072        1.22951
O          3.10252       -1.01073        0.37418
C          2.43113        0.39706       -1.57252
C          2.50681       -0.61570       -2.44400
H          0.88876       -0.09684        1.48555
H          0.36892       -0.72137       -0.08251
H          0.39590        1.02805        0.21336
H          2.78230        1.68925        1.48994
H          3.95496        1.73197        0.14791
H          4.98835       -0.30252        0.99401
H          3.75302       -0.41558        2.28578
H          2.40233        1.42383       -1.92501
H          2.53338       -1.65088       -2.11267
H          2.54995       -0.43104       -3.51240
