15
-1448.
C          2.11405       -0.31785       -1.56898
O          2.22216        0.17993       -0.24366
C          3.21078        1.18701       -0.10978
C          3.40746        1.57029        1.35796
N          2.70907        2.85280        1.45043
N          2.57743        3.45872        0.24938
C          2.80060        2.54025       -0.63485
H          1.35685       -1.10653       -1.57836
H          3.06577       -0.74639       -1.89773
H          1.79851        0.47182       -2.25682
H          4.15632        0.87252       -0.56504
H          4.47172        1.72247        1.56921
H          2.99727        0.83785        2.05868
H          3.07268        3.46875        2.17834
H          2.72571        2.71761       -1.71634
