12

O	2.247137	-1.092736	0.042919
C	1.974702	0.063058	-0.142443
C	2.942094	1.2011	0.021475
C	4.323735	0.767168	0.418921
C	5.388624	0.588486	-0.566977
O	5.344896	1.727725	0.265206
H	0.940647	0.366943	-0.454315
H	2.519204	1.893795	0.773969
H	2.968269	1.782787	-0.917235
H	4.377741	0.174355	1.342415
H	5.172634	0.763643	-1.630199
H	6.199869	-0.123803	-0.367595
