18

C	1.368179	-0.266223	-0.375177
C	2.774983	0.053139	0.051702
C	3.658098	-1.027417	0.611313
C	3.981645	-0.414956	-0.726701
N	4.955885	0.639114	-0.78334
C	4.281176	1.874994	-0.398473
C	3.100773	1.478085	0.506325
H	1.018139	0.441568	-1.144298
H	0.670715	-0.211755	0.476703
H	1.300832	-1.280778	-0.796377
H	3.264377	-2.048642	0.62324
H	4.312029	-0.783591	1.455686
H	3.847121	-1.028093	-1.626953
H	5.750309	0.444663	-0.180762
H	4.985905	2.577609	0.073933
H	3.893065	2.377206	-1.303666
H	3.377158	1.504584	1.573999
H	2.234362	2.146634	0.378826
