17
-1658.68
C          1.17596        0.00217       -0.06259
N          2.50964       -0.01400        0.51866
C          3.31070       -1.15967        0.08875
C          4.70229       -0.69958        0.48202
C          4.46949        0.77894        0.48480
C          5.60363        1.74508        0.52523
N          3.22430        1.14053        0.49546
H          0.65831       -0.94693        0.11608
H          1.21077        0.18546       -1.14261
H          0.57086        0.79177        0.39748
H          3.25891       -1.30141       -0.99766
H          3.02595       -2.08989        0.58886
H          5.46607       -0.98569       -0.24442
H          4.98478       -1.02028        1.48937
H          5.24448        2.76212        0.34893
H          6.33460        1.48378       -0.24391
H          6.08222        1.69657        1.50697
