19
-1839.52
C          1.79272       -0.53244       -1.08716
C          1.72159        0.24998        0.21678
C          2.28549        1.64914        0.10090
C          1.50806        2.72988        0.29415
C          3.75349        1.78093       -0.22076
O          4.50230        1.08380        0.77059
C          5.89439        1.11703        0.49184
H          1.28589       -1.49659       -0.97483
H          2.82917       -0.73672       -1.37603
H          1.30848        0.01158       -1.90537
H          2.25451       -0.29729        1.00245
H          0.67250        0.29008        0.53457
H          0.45384        2.63502        0.53680
H          1.90604        3.73791        0.22762
H          4.06288        2.83302       -0.22937
H          3.95695        1.35957       -1.21176
H          6.41976        0.59229        1.29448
H          6.25581        2.14952        0.45462
H          6.10681        0.60911       -0.45416
