16
-1657.07
C          0.97076       -0.01319        0.01193
C          2.48673        0.00370        0.02314
C          3.15193        1.04650        0.95759
C          4.24384       -0.00720        1.23540
C          3.19277       -1.09148        0.88171
C          3.69150       -2.23584        0.15341
N          4.09106       -3.15611       -0.43053
H          0.59980       -0.86441       -0.56808
H          0.57923        0.90140       -0.44513
H          0.55931       -0.08840        1.02394
H          2.87818        0.07021       -1.00310
H          2.56102        1.30814        1.84312
H          3.49431        1.96557        0.47512
H          5.09524        0.05568        0.54642
H          4.62210       -0.02959        2.26122
H          2.60307       -1.38665        1.76121
