19
-1891.76
C          1.08081       -0.44053        0.49452
C          2.57690       -0.29744        0.26534
C          2.96672        1.15635       -0.00108
C          4.47265        1.29464       -0.23060
C          4.86626        2.74919       -0.48709
C          6.31577        2.87429       -0.70099
C          7.49952        2.97787       -0.87499
H          0.82559       -1.48710        0.68808
H          0.51616       -0.10979       -0.38300
H          0.75717        0.15290        1.35558
H          2.87217       -0.92410       -0.58426
H          3.11260       -0.67095        1.14571
H          2.66591        1.77902        0.85034
H          2.42531        1.52726       -0.88005
H          4.77327        0.67289       -1.08384
H          5.01463        0.91249        0.64410
H          4.56841        3.37098        0.36504
H          4.33298        3.12976       -1.36570
H          8.55004        3.06849       -1.02878
