14

C	1.117045	0.018951	-0.568985
S	2.610772	0.273038	0.352566
O	2.287499	0.257536	1.777732
O	3.651023	-0.594964	-0.168182
N	2.997169	1.850278	-0.149082
C	2.686727	2.943149	0.763092
C	4.07875	2.473605	0.600496
H	1.349496	0.11842	-1.63585
H	0.367174	0.751523	-0.245567
H	0.786461	-1.000672	-0.330712
H	2.188373	2.678889	1.702821
H	2.341909	3.858077	0.271944
H	4.798301	3.02555	-0.011186
H	4.507689	1.907721	1.435584
