16

N	0.93559	-0.037556	0.106043
C	2.365541	0.117269	0.003489
C	3.046284	1.122516	0.952794
C	4.20865	0.127866	1.115885
O	5.210179	0.320935	0.160846
C	3.228366	-0.974339	0.640944
O	3.755561	-1.923751	-0.247276
H	0.61869	-0.757527	-0.542236
H	0.473249	0.822071	-0.186827
H	2.750129	0.278588	-1.023826
H	2.464518	1.233603	1.880351
H	3.315299	2.109455	0.551619
H	4.641508	0.02562	2.12907
H	5.232322	-0.496129	-0.360774
H	2.679598	-1.433008	1.481515
H	4.076365	-2.678754	0.256985
