17
-1725.97
O          2.21779       -0.33689        1.39381
C          2.47269       -0.00954        0.03762
C          2.97682        1.38690       -0.02681
C          4.14497        1.80772       -0.52950
C          4.31485        3.28279       -0.38034
C          2.90796        3.75162       -0.01561
C          2.17831        2.52490        0.53104
H          1.94419       -1.26848        1.40747
H          1.54289       -0.10696       -0.53130
H          3.20462       -0.71888       -0.36198
H          4.90312        1.16567       -0.95790
H          5.03317        3.50399        0.41566
H          4.65767        3.74961       -1.30826
H          2.39480        4.11577       -0.91530
H          2.92174        4.57725        0.70321
H          1.13818        2.50755        0.19144
H          2.19701        2.50810        1.62592
