15
-1520.73
C          0.99624        0.02601        0.05439
C          2.51147       -0.03793        0.00886
N          3.15454        0.98555        0.87922
C          4.19275       -0.01571        1.22619
C          3.19494       -1.13304        0.86474
C          3.73784       -2.25228        0.13765
N          4.16868       -3.16261       -0.44014
H          0.56365       -0.81831       -0.49243
H          0.63138        0.94660       -0.41332
H          0.61320       -0.00926        1.08011
H          2.87585        0.01668       -1.02714
H          2.58614        1.27972        1.67562
H          5.08235        0.05200        0.58755
H          4.51547        0.00919        2.27156
H          2.59302       -1.44374        1.73037
