12
-1295.96
O          0.93022       -0.05752        0.00462
C          2.15689       -0.01570       -0.00229
N          2.90048       -1.16616        0.01150
C          4.25631       -1.22529        0.00633
C          4.95429       -0.09372       -0.01529
C          4.27032        1.22734       -0.03433
O          2.83256        1.16249       -0.02311
H          2.35167       -2.01655        0.02731
H          4.71410       -2.20900        0.02022
H          6.03892       -0.11299       -0.02002
H          4.57594        1.81484        0.83733
H          4.56361        1.78308       -0.93080
