12
-1302.5
C          2.81613       -1.19087        0.40598
C          2.28131        0.01152        0.15430
C          3.01159        1.23444        0.12618
C          2.52743        2.51256       -0.11519
C          3.56835        3.48072       -0.05926
N          4.78944        3.03218        0.20322
S          4.70972        1.38923        0.39397
H          2.18486       -2.07443        0.40822
H          3.86800       -1.35134        0.61501
H          1.21272        0.06599       -0.04288
H          1.48973        2.74000       -0.31917
H          3.45314        4.54629       -0.21123
