17
-1659.76
C          3.49202       -1.13559        0.22611
C          3.28331       -0.04934        1.27598
N          3.19513        1.30470        0.70670
C          2.80799        2.26842        1.74077
C          4.42138        1.74298       -0.00002
C          5.66313        1.78180        0.80298
N          6.63774        1.81183        1.43701
H          3.39852       -2.12354        0.68932
H          4.48650       -1.07972       -0.22662
H          2.74204       -1.06684       -0.56881
H          4.07055       -0.11751        2.03671
H          2.33738       -0.27758        1.78394
H          1.83387        2.00147        2.16600
H          2.69405        3.27077        1.31301
H          3.53369        2.32086        2.55996
H          4.24254        2.74194       -0.41876
H          4.58065        1.10449       -0.87667
