12

O	2.00001	-0.430638	-1.308474
C	2.491927	-0.152602	-0.02325
C	2.986244	1.258188	0.01866
C	2.272472	2.409183	-0.200986
N	2.972832	3.575334	-0.139428
C	4.222935	3.344985	0.120866
S	4.635108	1.676293	0.300742
H	1.594739	-1.303743	-1.288681
H	3.314274	-0.835586	0.267271
H	1.702262	-0.26468	0.747398
H	1.204375	2.42546	-0.42681
H	4.983423	4.122137	0.232181
