20
-1931.93
C          1.00423        0.01907       -0.02058
C          2.52411        0.00235        0.03429
C          3.09145        1.09808        0.92261
N          4.46182        0.64236        1.18169
C          4.35111       -0.80552        1.40652
C          3.09853       -1.27535        0.65801
C          3.40277       -2.34273       -0.38721
H          0.62833       -0.79482       -0.64936
H          0.64375        0.96483       -0.43862
H          0.56557       -0.09555        0.97665
H          2.91291        0.13093       -0.98521
H          2.54384        1.19159        1.86682
H          3.08674        2.07436        0.42631
H          5.01419        0.79211        0.33547
H          5.26460       -1.31542        1.08309
H          4.23559       -0.99301        2.48052
H          2.39152       -1.69185        1.38641
H          4.12984       -1.98490       -1.12399
H          2.49359       -2.63425       -0.92180
H          3.81790       -3.23763        0.08739
