12
-1248.5
C          0.88522        0.01024       -0.00344
C          2.36747        0.05815       -0.00452
C          3.23562        1.12508       -0.00175
O          2.80157        2.39997        0.00299
C          4.58735        0.68391       -0.00445
N          4.78445       -0.63214       -0.00930
S          3.30002       -1.38032       -0.01062
H          0.45438        1.01680        0.00876
H          0.51419       -0.52091        0.87949
H          0.51266       -0.50033       -0.89778
H          3.55397        3.01663        0.00431
H          5.46852        1.31088       -0.00307
