16
-1513.63
C         -1.67050        0.96490        0.40901
C         -1.36256       -0.41052       -0.10282
C         -0.33012       -1.33037        0.39834
C          0.80844       -0.68839       -0.30809
N          1.96850       -0.17592        0.28537
C          0.94432        0.85951       -0.02962
C         -0.52558        0.76626       -0.56767
H         -2.56761        1.45204        0.04189
H         -1.44993        1.18210        1.44819
H         -2.03368       -0.86518       -0.82052
H         -0.23920       -1.29967        1.48992
H         -0.48640       -2.36221        0.07025
H          0.93484       -1.05845       -1.32350
H          1.99897       -0.36049        1.28876
H          0.91673        1.43657        0.89209
H         -0.68665        1.13263       -1.57980
