15
-1424.56
C          2.45829       -0.77762        0.29691
O          3.23651        0.01914       -0.59202
N          3.37243        1.27975        0.00885
C          4.60776        1.85349       -0.21461
N          5.63806        1.13207       -0.54921
C          4.84826        3.31820       -0.09101
C          3.96807        4.17592        0.43833
H          2.37833       -1.78214       -0.12755
H          1.45092       -0.36126        0.39795
H          2.94134       -0.85054        1.27658
H          2.58679        1.89504       -0.18509
H          5.28106        0.16841       -0.59856
H          5.81557        3.65836       -0.44885
H          3.01092        3.86988        0.84181
H          4.21722        5.23071        0.50497
