11

N	5.268475	-2.068368	0.136369
C	4.548535	-1.165469	0.06538
C	3.666777	-0.00845	-0.02285
C	4.423115	1.302273	0.020202
C	4.805784	1.997416	-1.206894
O	3.702642	2.419734	-0.429838
H	2.945601	-0.047924	0.811028
H	3.081642	-0.063726	-0.954619
H	5.02437	1.461806	0.926526
H	4.561829	1.54629	-2.177855
H	5.677171	2.664057	-1.205238
