16
-1562.49
N          2.81510       -1.04423        1.09679
C          2.45219       -0.21459       -0.05415
C          2.95059        1.21908        0.12931
C          4.47077        1.35782        0.02124
C          5.24522        1.16611        1.30329
O          5.00825        0.01179        1.95284
O          6.08758        1.96233        1.69283
H          2.51824       -2.00700        0.89970
H          2.21539       -0.76909        1.88704
H          1.36337       -0.21958       -0.17042
H          2.88249       -0.65112       -0.96173
H          2.59151        1.63219        1.07944
H          2.49911        1.82277       -0.66789
H          4.67836        2.38798       -0.30026
H          4.88901        0.70031       -0.74866
H          4.27902       -0.52618        1.54870
