15
-1422.95
C          1.11147       -0.36074        0.26259
N          2.34933       -0.28786       -0.51980
C          2.31900       -1.30380       -1.57946
C          2.49737        1.06665       -1.08869
C          3.87605        1.23501       -1.68881
O          4.07523        1.65688       -2.82611
H          1.13429        0.36137        1.08636
H          1.00208       -1.35114        0.71868
H          0.22322       -0.16092       -0.34779
H          2.19438       -2.30309       -1.14710
H          3.26423       -1.32491       -2.13176
H          1.50409       -1.13410       -2.29256
H          2.41914        1.82080       -0.29655
H          1.73544        1.28120       -1.84728
H          4.72113        1.00647       -1.01602
