14

C	1.042196	0.066564	-0.006286
C	2.561774	-0.04602	0.006283
C	3.07503	-1.254597	-0.795699
C	3.366376	-0.589806	-2.114381
N	3.415456	0.686069	-2.027959
N	3.203856	1.052002	-0.730286
H	0.709611	0.991671	0.490761
H	0.578202	-0.78147	0.520931
H	0.665066	0.076635	-1.041304
H	2.92919	-0.061316	1.044414
H	2.344445	-2.076621	-0.857712
H	4.002832	-1.669407	-0.361561
H	3.578827	-1.091793	-3.060396
H	2.766709	1.96583	-0.663506
