12
-1362.76
C          1.00000        0.00000        0.00000
C          2.44400        0.00000        0.00000
C          3.63416        0.00000        0.00000
C          5.04016        0.00000        0.00000
C          5.69786       -1.17114        0.00000
C          5.77415        1.22804        0.00000
N          6.38413        2.21410        0.00000
H          0.60598        1.02086        0.01168
H          0.60598       -0.52056        0.87825
H          0.60598       -0.50032       -0.88993
H          5.16877       -2.11975        0.00000
H          6.78360       -1.21403        0.00000
