17
-1578.71
C          2.43071       -1.20640       -1.12753
N          3.49963       -0.51480       -0.41461
N          3.44422        0.83436       -0.46100
C          4.53822        1.40593       -0.06827
C          4.66318        2.90746       -0.00900
C          3.59700        3.62746       -0.81820
O          2.31417        3.44742       -0.22720
H          2.57392       -2.28830       -1.05203
H          2.43935       -0.93859       -2.18865
H          1.45206       -0.95608       -0.70621
H          3.50474       -0.84652        0.55270
H          5.41307        0.82743        0.28227
H          5.65772        3.16717       -0.38668
H          4.61482        3.19263        1.04776
H          3.55875        3.27261       -1.85316
H          3.80305        4.70196       -0.83456
H          2.14142        2.48327       -0.27198
