15
-1456.9
C          0.94244       -0.55033        0.24698
C          2.32636       -0.07276       -0.17761
C          2.93904       -1.02683       -1.20024
N          2.24623        1.27495       -0.71998
C          3.31732        2.13211       -0.69623
O          4.40119        1.91166       -0.17929
H          0.51075        0.12631        0.99331
H          0.99072       -1.55237        0.68667
H          0.25274       -0.58385       -0.60439
H          2.97613       -0.04594        0.70541
H          2.33726       -1.06690       -2.11519
H          3.01188       -2.04097       -0.79391
H          3.94678       -0.70459       -1.48369
H          1.44777        1.52833       -1.28756
H          3.09087        3.08109       -1.21112
