15

C	0.985577	-0.01469	0.017848
C	2.516737	0.020166	-0.019965
C	3.074619	-0.757986	-1.216462
C	3.011902	1.39346	-0.009347
C	3.41888	2.542674	-0.003935
C	3.878217	3.83546	0.002026
C	4.286832	4.982153	0.007293
H	0.59336	0.523819	0.892467
H	0.631685	-1.055684	0.064988
H	0.564721	0.451227	-0.886388
H	2.892584	-0.458783	0.90384
H	2.727814	-0.313617	-2.161897
H	2.730801	-1.802751	-1.181929
H	4.174154	-0.753455	-1.220327
H	4.648356	5.993699	0.012107
