16

N	1.213585	-0.196467	0.300576
C	2.321562	0.294408	-0.500965
C	2.28708	-0.450428	-1.851054
C	3.396953	-0.130189	-2.735651
C	4.324412	0.149735	-3.462339
C	2.160254	1.772664	-0.702121
C	3.102496	2.682869	-0.460447
H	1.1864	0.287507	1.19499
H	1.329617	-1.187366	0.505665
H	3.321004	0.11412	-0.049923
H	1.325327	-0.229993	-2.345603
H	2.286598	-1.537251	-1.652397
H	5.144345	0.402476	-4.108493
H	1.177579	2.077038	-1.083978
H	4.088081	2.395155	-0.080171
H	2.930676	3.746793	-0.645229
