13
-1421.13
C          1.00000        0.00000        0.00000
C          2.19016        0.00000        0.00000
C          3.59616        0.00000        0.00000
C          4.35424       -1.09209       -0.06708
C          5.78451       -0.71119       -0.04260
O          5.81328        0.72750       -0.01758
C          4.45555        1.20744        0.07596
H         -0.06521       -0.00249       -0.00047
H          3.99861       -2.10963       -0.12698
H          6.28942       -1.08884        0.85071
H          6.31404       -1.05652       -0.93436
H          4.27643        1.89979       -0.75192
H          4.34043        1.73634        1.02702
