16

C	1.97576	-0.622533	1.060401
C	2.868242	-0.18322	-0.097276
C	3.152732	1.2851	-0.084935
C	4.363514	1.84602	-0.008269
C	4.619074	3.320149	0.020638
O	5.360176	3.715076	1.149396
H	1.756588	-1.699848	1.010734
H	1.013831	-0.086254	1.049651
H	2.456856	-0.417818	2.02975
H	2.373165	-0.444214	-1.050931
H	3.817291	-0.743484	-0.080578
H	2.274643	1.946201	-0.135276
H	5.256004	1.209205	0.058616
H	3.657598	3.867081	-0.063326
H	5.225576	3.613222	-0.853443
H	4.886951	3.399469	1.926897
