17

C	2.808712	-1.364942	-0.345033
C	2.240873	-0.070754	0.219239
C	3.255737	1.058841	0.281101
N	4.430147	0.85968	1.083391
C	3.463414	1.895621	-0.950182
C	2.746452	2.471587	0.238305
H	2.054466	-2.1663	-0.364115
H	3.654886	-1.725426	0.261709
H	3.175309	-1.221673	-1.373937
H	1.851988	-0.246884	1.239149
H	1.37463	0.250706	-0.382531
H	4.17208	0.626142	2.041269
H	4.984403	0.083442	0.726356
H	2.879023	1.65402	-1.842713
H	4.480259	2.244084	-1.144003
H	3.28722	3.201743	0.844523
H	1.66684	2.632473	0.167342
