18
-1670.67
N          2.42605       -0.42508        1.87073
C          2.34380       -0.29282        0.41546
C          3.34652        0.73686       -0.11249
C          4.81868        0.43806        0.20240
O          5.05050        0.44318        1.61834
C          5.31398       -0.89945       -0.35546
O          6.70682       -1.03977       -0.07175
H          1.75433       -1.13476        2.17480
H          2.09793        0.44547        2.29979
H          1.32821        0.01309        0.14072
H          2.51998       -1.26988       -0.04559
H          3.09154        1.71603        0.31343
H          3.22285        0.81890       -1.19878
H          5.44136        1.24348       -0.20438
H          4.28364       -0.02933        2.01522
H          5.17588       -0.95714       -1.43929
H          4.80915       -1.74735        0.11700
H          6.81423       -0.70521        0.84170
