16
-1603.22
C          1.32145       -0.13338        0.94228
C          2.52000        0.00000        0.00000
C          2.12312       -0.44510       -1.42127
C          3.28422       -0.43111       -2.41200
O          4.32953       -1.25924       -1.92759
C          3.00202        1.36117        0.00000
N          3.38623        2.44616        0.00000
H          1.59061        0.16004        1.96315
H          0.96498       -1.16833        0.97448
H          0.48743        0.50264        0.62412
H          3.30888       -0.66286        0.37587
H          1.31628        0.18807       -1.81072
H          1.73244       -1.46933       -1.36339
H          3.67360        0.58059       -2.56343
H          2.95346       -0.81997       -3.38095
H          5.05957       -1.20234       -2.56997
