14

O	1.894337	0.029676	1.574996
C	2.529194	0.009499	0.556086
C	2.983776	-1.247637	-0.183097
C	4.039267	-0.775045	-1.150464
N	5.160059	-0.030453	-0.608746
C	4.052575	0.718155	-1.171674
C	3.005977	1.236722	-0.218494
H	2.108801	-1.670066	-0.708791
H	3.323077	-2.012196	0.534021
H	4.253241	-1.372435	-2.042755
H	5.160721	-0.015856	0.412989
H	4.276883	1.28615	-2.080492
H	3.35901	2.015248	0.476613
H	2.13852	1.659398	-0.756231
