11

O	1.961233	-0.775996	0.356832
C	2.419357	0.217196	-0.10609
N	3.075268	1.215657	0.672812
C	4.112554	1.961519	-0.017846
C	2.796466	2.585465	0.231227
C	2.5823	3.569747	1.266442
N	2.416845	4.380637	2.074809
H	2.374612	0.444203	-1.209258
H	4.335659	1.703221	-1.061823
H	4.975711	2.225597	0.598751
H	2.145175	2.717815	-0.645256
