16
-1655.55
N          2.92394       -1.17595       -0.54347
C          2.38381        0.01743        0.11886
C          3.35506        1.21394        0.07581
C          2.82127        2.41356        0.82353
C          2.72668        3.46535       -0.00551
C          3.16588        3.07839       -1.32221
C          3.53444        1.78962       -1.30852
H          2.25950       -1.94215       -0.44307
H          3.77756       -1.47045       -0.07114
H          2.16100       -0.23763        1.16202
H          1.43093        0.27748       -0.35835
H          4.32948        0.92975        0.49210
H          2.56873        2.41904        1.87296
H          2.38280        4.45524        0.25241
H          3.18566        3.73873       -2.17579
H          3.90280        1.22653       -2.15329
