16

C	1.139188	-0.031379	0.214016
N	2.522355	0.010165	-0.155046
C	3.304138	1.222214	-0.126051
C	4.602682	0.818472	-0.834057
C	4.701257	-0.68102	-0.573834
C	3.259091	-1.121793	-0.376445
O	2.82965	-2.254349	-0.378386
H	0.803404	-1.074447	0.132418
H	0.528134	0.600046	-0.452187
H	0.985346	0.311851	1.252764
H	3.486158	1.552972	0.916481
H	2.778635	2.04501	-0.639398
H	4.502935	1.004438	-1.914751
H	5.469347	1.39212	-0.477558
H	5.176505	-1.263665	-1.374462
H	5.243897	-0.909165	0.359916
