17
-1639.64
C          1.36561       -0.21301        0.18196
O          2.78535       -0.16254        0.18920
C          3.26222        1.17243        0.01643
C          4.77342        1.20723       -0.04068
C          5.55901        0.11722        0.03562
C          5.36244        2.58322       -0.17111
O          4.96974        3.14178       -1.41501
H          1.05712       -1.25067        0.33531
H          0.97542        0.12741       -0.78219
H          0.95454        0.39723        0.99204
H          2.91674        1.78368        0.85849
H          2.85248        1.58040       -0.91484
H          5.13413       -0.87779        0.13977
H          6.64151        0.18437        0.00037
H          6.45662        2.57445       -0.13084
H          5.00610        3.23404        0.63350
H          5.25356        2.51216       -2.10078
