21
-2044.96
C          1.26066       -0.48337       -0.27273
C          2.78983       -0.42589       -0.27699
C          3.31972       -0.81720       -1.65772
C          3.26225        0.97445        0.15166
C          4.75492        1.06762        0.29569
C          5.58625        1.73518       -0.76985
C          5.39181        2.40790        0.55949
H          0.86409       -0.23944        0.71831
H          0.90798       -1.48622       -0.53530
H          0.83492        0.22443       -0.99215
H          3.15892       -1.16206        0.44884
H          3.01780       -0.09158       -2.42014
H          2.93672       -1.79944       -1.95463
H          4.41220       -0.88039       -1.66001
H          2.81697        1.21708        1.12477
H          2.89445        1.72740       -0.55705
H          5.17639        0.21897        0.82401
H          5.08633        2.16396       -1.63106
H          6.56075        1.31439       -0.99009
H          6.23619        2.44226        1.23875
H          4.75746        3.28619        0.59800
