13

C	0.861676	-0.04575	0.199825
C	2.189268	-0.048049	0.023161
C	3.047107	1.177217	-0.120845
O	4.249638	1.046268	0.607564
N	5.01539	-0.05637	0.266444
C	4.340205	-1.093623	-0.063821
N	2.972045	-1.182552	-0.117791
H	0.322132	0.89889	0.271548
H	0.287311	-0.972998	0.267516
H	2.542612	2.06929	0.270237
H	3.27734	1.33891	-1.193782
H	4.908956	-1.994712	-0.308531
H	2.53838	-2.088991	-0.227925
