16

C	1.210634	-0.042994	-0.925325
C	1.999003	-0.54101	0.245356
C	1.961057	-1.821578	0.651175
N	2.802922	0.372779	0.94145
C	3.014916	1.71112	0.703515
C	3.996834	2.343138	1.668369
O	2.494448	2.33652	-0.194038
H	1.866256	0.391126	-1.692751
H	0.522465	0.761425	-0.630087
H	0.639262	-0.873988	-1.35857
H	1.340336	-2.548618	0.12766
H	2.540175	-2.175526	1.508717
H	3.304365	-0.021406	1.727706
H	3.776954	2.081807	2.715176
H	3.952098	3.431446	1.54399
H	5.020147	2.003466	1.441178
