16

C	1.01214	0.005793	-0.037564
C	2.515055	-0.057671	-0.003235
C	3.333201	-0.77705	-1.031878
C	2.733738	-1.508812	-2.202439
C	3.332192	0.740332	-1.002653
C	4.49916	1.464123	-0.581244
N	5.445549	2.038265	-0.236646
H	0.646341	0.875747	0.528827
H	0.572023	-0.897427	0.413655
H	0.622826	0.091286	-1.062181
H	2.940578	-0.076379	1.005964
H	4.251968	-1.228729	-0.643374
H	1.848169	-0.994949	-2.602837
H	2.426664	-2.525276	-1.91119
H	3.464396	-1.599784	-3.020744
H	2.766069	1.23687	-1.79913
