23
-2189.55
C          0.96868       -0.10478       -0.02335
C          2.50001        0.00733       -0.04401
C          3.02995       -0.84342       -1.20794
C          3.03060        1.48683       -0.04206
C          2.59162        2.27439       -1.29169
C          2.51618        2.23745        1.20614
C          4.57417        1.50109        0.01882
H          0.53671        0.38411        0.85406
H          0.66313       -1.15667        0.02075
H          0.51620        0.32883       -0.92064
H          2.86004       -0.46863        0.87899
H          2.70556       -0.45293       -2.17778
H          2.66081       -1.87123       -1.12876
H          4.12189       -0.90056       -1.20479
H          2.96714        1.81746       -2.21202
H          2.97730        3.29994       -1.26074
H          1.50228        2.34291       -1.36609
H          2.75344        1.68692        2.12279
H          1.43338        2.39232        1.17174
H          2.97505        3.22942        1.28785
H          4.94098        0.90377        0.86046
H          4.95528        2.52084        0.14592
H          5.02246        1.10863       -0.89917
