11
-1215.13
O          1.19326        0.13062        0.35437
C          2.37626       -0.01608        0.17168
N          3.35615        0.91981        0.01742
C          4.29689       -0.03853       -0.57246
C          3.38291       -1.16056       -0.02917
C          2.96376       -2.13490       -0.99662
N          2.67184       -2.93504       -1.78526
H          3.07982        1.83697       -0.31233
H          4.36880        0.06753       -1.65989
H          5.29181        0.01202       -0.12272
H          3.71597       -1.58918        0.92342
