13
-1306.46
C          1.91049       -0.66083       -1.19042
C          2.06825        0.29640       -0.26706
C          3.23695        1.16654       -0.13081
C          3.51015        2.19769       -1.19444
C          3.01876        2.62928        0.15598
H          1.01207       -1.26868       -1.21612
H          2.67432       -0.85169       -1.93734
H          1.27042        0.43648        0.46189
H          4.09572        0.69685        0.33893
H          2.82707        2.28210       -2.03246
H          4.54476        2.39844       -1.44809
H          3.72075        3.12457        0.81732
H          2.00544        3.00893        0.22560
