12
-1297.05
O          0.99284       -0.02769        0.06464
C          2.42790        0.05865        0.01225
C          2.90628       -0.65094       -1.25763
C          4.35762       -0.90182       -1.24739
C          5.54093       -1.10448       -1.24325
C          2.86699        1.46931        0.03981
N          3.18421        2.58489        0.09342
H          0.69725        0.52751        0.80878
H          2.80703       -0.46104        0.90013
H          2.63094       -0.06968       -2.14696
H          2.37962       -1.60881       -1.35592
H          6.59273       -1.28125       -1.24597
