18
-1659.66
C          2.93118       -0.87572       -0.21723
N          2.85336        0.15802        0.81126
C          3.15993        1.50195        0.25776
C          2.59830        2.55591        1.23717
O          3.13185        2.35783        2.54957
C          4.68331        1.70080        0.08727
O          5.38326        1.37833        1.29198
H          2.61602       -1.83257        0.20918
H          3.95324       -1.00075       -0.59127
H          2.26546       -0.65597       -1.05994
H          3.58708       -0.05009        1.49725
H          2.66041        1.65160       -0.70749
H          1.50608        2.49759        1.29876
H          2.86402        3.56770        0.91380
H          2.74588        1.50761        2.84025
H          4.91707        2.73688       -0.17950
H          5.07521        1.05727       -0.70604
H          4.94768        1.89372        2.00467
