19
-1776.93
C          2.68664       -0.91789       -0.58123
N          3.50180        0.23427       -0.94155
C          3.27079        1.34507       -0.01285
C          4.08038        2.57575       -0.43782
C          3.91168        3.70730        0.53236
C          3.86897        5.12927        0.03483
N          2.66730        4.47210        0.53887
H          2.87991       -1.73552       -1.28291
H          1.61741       -0.68310       -0.62577
H          2.93210       -1.27989        0.42281
H          3.25427        0.53289       -1.88487
H          3.56413        1.04987        1.00260
H          2.20476        1.60333        0.01269
H          3.78259        2.88239       -1.44784
H          5.14711        2.32004       -0.48657
H          4.36928        3.50979        1.49534
H          3.88940        5.31554       -1.03294
H          4.29106        5.91224        0.65276
H          2.44397        4.79740        1.48135
