15
-1470.39
C         -1.75065        0.65996        0.21687
O         -1.55984       -0.70280       -0.37441
C         -0.23937       -0.62089        0.22751
C          1.03746       -0.97210       -0.46841
O          1.94772        0.04395        0.02648
C          1.10787        1.09137        0.58713
C         -0.24116        0.89237       -0.05267
H         -2.43484        1.25916       -0.38863
H         -2.08697        0.61675        1.25854
H         -0.26721       -0.94997        1.27809
H          1.42039       -1.95868       -0.19464
H          0.98393       -0.89213       -1.55934
H          1.09415        0.98834        1.67860
H          1.55109        2.05891        0.33444
H         -0.13861        1.18940       -1.11104
