17

C	0.956918	0.147264	-0.184878
C	2.444681	-0.010246	-0.02788
C	3.276689	-0.68842	-1.101327
O	2.682316	-1.059752	-2.296918
C	3.433351	0.782307	-0.834879
C	2.989983	1.784665	-1.864859
O	4.554053	1.162281	-0.098324
H	0.603161	1.095352	0.249783
H	0.419083	-0.668231	0.324146
H	0.661776	0.128865	-1.243763
H	2.79641	-0.194621	0.992599
H	4.1075	-1.322462	-0.759164
H	2.144521	-1.841476	-2.131062
H	2.16306	1.402393	-2.475791
H	3.82383	2.010552	-2.5504
H	2.683289	2.724006	-1.380084
H	5.299048	1.213272	-0.70842
