13
-1316.71
N          2.52426       -0.72985       -1.33837
C          2.43693       -0.07970       -0.02632
C          2.96955        1.32725       -0.03249
N          2.23420        2.40911        0.13560
C          3.03512        3.53283        0.08087
C          4.37878        3.29860       -0.10701
S          4.66128        1.61257       -0.22349
H          2.19398       -1.68883       -1.25437
H          3.50263       -0.78049       -1.61752
H          2.97907       -0.67833        0.71506
H          1.38575       -0.06102        0.28262
H          2.58099        4.51001        0.18760
H          5.18306        4.01507       -0.17842
