11

N	1.026534	0.002527	-0.259766
C	2.272041	-0.066436	-0.018757
C	3.127915	-1.237258	0.135478
C	4.37417	-0.778339	0.383722
N	4.430566	0.614582	0.409608
C	3.184929	1.149693	0.171609
O	2.870907	2.312001	0.122114
H	0.766065	0.998289	-0.299698
H	2.813944	-2.274973	0.063151
H	5.285151	-1.351837	0.55601
H	5.257919	1.17005	0.579109
