18
-1630.9
C          1.00223       -0.02810        0.01963
N          2.45823       -0.00428        0.03173
C          2.96325        1.36845       -0.00821
C          4.49402        1.36282       -0.01127
C          5.04102        2.78994       -0.01044
N          6.49973        2.78113       -0.03457
H          0.65359       -1.06495        0.06072
H          0.60001        0.42673       -0.89176
H          0.59052        0.49176        0.89114
H          2.81147       -0.52090       -0.77369
H          2.60447        1.92158        0.86799
H          2.59838        1.88121       -0.90648
H          4.86113        0.82558       -0.89553
H          4.86417        0.82425        0.87113
H          4.69742        3.32558        0.88133
H          4.67516        3.33414       -0.88765
H          6.85280        2.28568        0.78389
H          6.84607        3.73675        0.03940
