18
-1720.81
C          2.79976        1.92182        0.67535
C          4.15323        1.56947        0.08562
O          4.85501        2.78558       -0.16816
C          6.12274        2.70775       -0.71175
C          6.76224        1.57620       -1.05408
C          6.77065        4.06284       -0.90063
N          5.96316        4.92163       -1.76509
H          2.22134        1.01835        0.88990
H          2.22987        2.55008       -0.01687
H          2.91894        2.49362        1.60103
H          4.00570        1.01576       -0.84827
H          4.71062        0.95477        0.80178
H          6.33164        0.58993       -0.93419
H          7.76170        1.61033       -1.47801
H          7.77338        3.97198       -1.33187
H          6.88631        4.54593        0.07705
H          5.82478        4.43857       -2.65142
H          5.03404        4.97640       -1.34465
