15
-1541.15
C          0.99754        0.03834       -0.12757
C          2.48234        0.01669        0.01663
C          3.32746       -0.72194       -0.98745
C          3.34441        0.79110       -0.95906
C          4.53231        1.57353       -0.52451
O          5.26321        1.02974        0.47493
O          4.81270        2.63784       -1.04990
H          0.58454        0.92011        0.37206
H          0.56206       -0.85212        0.33637
H          0.68455        0.06311       -1.17656
H          2.76830       -0.01710        1.06102
H          2.83604       -1.19756       -1.83136
H          4.19287       -1.27408       -0.64131
H          2.82486        1.27876       -1.78173
H          4.91114        0.18027        0.79101
