15
-1436.57
C          0.93772        0.23772       -0.17740
C          2.38389        0.23587        0.16799
O          3.11529       -0.87107       -0.36739
C          3.44133        0.43252       -0.88956
C          4.78735        0.89975       -0.51792
N          5.37451        1.74119       -1.30739
N          6.60775        2.10017       -0.88197
H          0.51766        1.23782       -0.03322
H          0.39468       -0.45692        0.47125
H          0.76172       -0.05941       -1.21661
H          2.58107        0.53445        1.18831
H          3.12157        0.65343       -1.90056
H          5.23845        0.51751        0.41568
H          7.25861        1.31082       -0.91697
H          6.99725        2.79649       -1.52306
