14
-1378.33
C          1.01665       -0.01550        0.29134
C          2.52000        0.00000        0.00000
N          2.78579       -0.67341       -1.29453
N          2.51531       -2.00395       -1.33818
C          2.41324       -2.45580       -2.54403
C          3.00202        1.36117        0.00000
N          3.38623        2.44616        0.00000
H          0.79666        0.49068        1.23881
H          0.63359       -1.03873        0.36994
H          0.44902        0.49860       -0.49403
H          3.03628       -0.55694        0.79185
H          3.76988       -0.50967       -1.53092
H          2.19460       -3.52322       -2.70756
H          2.52235       -1.82705       -3.44487
