15

N	1.272608	0.04602	0.703586
C	2.112087	0.210817	-0.341218
O	2.017193	-0.348306	-1.41571
C	3.203292	1.235506	-0.07203
C	2.904856	2.684254	-0.519474
C	3.460837	3.107929	0.850238
N	3.327601	1.718462	1.307766
H	1.458007	0.579821	1.546207
H	0.483293	-0.579056	0.622047
H	4.134155	0.848595	-0.524898
H	1.827193	2.872658	-0.624786
H	3.424918	3.04391	-1.415674
H	4.506201	3.462817	0.783917
H	2.882117	3.844801	1.431546
H	4.09827	1.339012	1.852462
