14
-1496.52
C          0.99556        0.05068        0.03981
C          2.46886       -0.03769       -0.02078
C          3.28232       -1.10122       -0.05722
C          4.72077       -0.72682       -0.11926
N          4.63195        0.69642       -0.11677
C          3.33858        1.15152       -0.06022
O          2.97414        2.31045       -0.04609
H          0.53631       -0.94255        0.01729
H          0.60825        0.61936       -0.81157
H          0.67811        0.54851        0.96142
H          2.94535       -2.12771       -0.04356
H          5.27998       -1.06090        0.75771
H          5.20290       -1.06269       -1.04013
H          5.40925        1.34090       -0.15272
