16

C	1.574254	-0.678908	-1.10283
C	2.484364	-0.182454	-0.251982
C	3.243257	1.034807	-0.473614
C	4.15356	1.523252	0.386191
C	4.917666	2.76433	0.180719
C	5.183865	3.717122	1.295455
N	6.230801	2.841751	0.817391
H	1.034456	-1.603818	-0.887483
H	1.342669	-0.174164	-2.046158
H	2.688663	-0.718026	0.683485
H	3.049732	1.57487	-1.409586
H	4.365037	0.989875	1.321127
H	4.800498	3.217433	-0.812581
H	4.802987	3.495306	2.29881
H	5.209183	4.7853	1.046795
H	6.891077	3.340095	0.223352
