14
-1410.52
N          1.30555       -0.05538        0.90273
C          1.95401        0.29746       -0.25198
O          1.57617       -0.16868       -1.32671
C          3.14557        1.29335       -0.04362
C          2.97765        2.72130       -0.57609
C          3.39508        3.15525        0.82280
O          3.27823        1.80307        1.32733
H          1.61617        0.31677        1.79280
H          0.53263       -0.70370        0.85825
H          4.09561        0.83462       -0.34840
H          1.95511        2.99822       -0.84791
H          3.66428        3.00401       -1.37747
H          4.42100        3.52424        0.91498
H          2.70537        3.83826        1.32573
