18
-1717.54
C          0.85024        0.23404       -0.28009
C          2.31623        0.14185        0.06987
C          2.60594        0.22760        1.55008
O          2.26010       -0.99872        2.18512
C          3.17840       -0.78172       -0.76480
C          3.29322        0.70416       -0.94770
N          4.53074        1.37602       -0.57032
H          0.68469        0.21275       -1.36303
H          0.42524        1.16788        0.10313
H          0.29322       -0.60280        0.15305
H          2.03862        1.03932        2.01744
H          3.66447        0.40408        1.76052
H          1.31227       -1.14533        2.03620
H          2.71437       -1.35267       -1.56032
H          3.98489       -1.31495       -0.27290
H          2.86216        1.10527       -1.86458
H          5.07684        0.83773        0.10065
H          4.34792        2.28287       -0.14329
