22
-2048.32
C          0.98046       -0.07710       -0.05694
N          2.44101        0.04426       -0.08205
C          2.97040       -0.79189       -1.16378
C          2.95005        1.44713       -0.07290
C          2.52222        2.27093       -1.30564
C          2.45286        2.18001        1.19677
C          4.49594        1.45442        0.00206
H          0.54351        0.40563        0.82138
H          0.68903       -1.13141        0.02051
H          0.50930        0.33100       -0.95656
H          2.60269       -1.82000       -1.06409
H          4.06025       -0.87333       -1.12182
H          2.67952       -0.43047       -2.15516
H          2.88932        1.83201       -2.23896
H          2.92729        3.28834       -1.24992
H          1.43433        2.36492       -1.37891
H          2.67344        1.60145        2.10144
H          1.37599        2.37572        1.16872
H          2.94234        3.15528        1.30588
H          4.85688        0.82698        0.82488
H          4.87750        2.46808        0.17295
H          4.95719        1.10233       -0.92678
