17
-1790.97
C          1.00647        0.02608        0.08552
C          2.49410        0.00564        0.01062
C          3.26363       -1.08586       -0.10941
C          4.72015       -0.75243       -0.13820
C          4.74284        0.77556       -0.21959
C          3.32182        1.19401        0.05708
C          2.92566        2.44502        0.31615
H          0.58773       -0.98237       -0.00100
H          0.58702        0.62841       -0.72718
H          0.67056        0.44408        1.03992
H          2.89078       -2.09977       -0.15642
H          5.21015       -1.10978        0.77407
H          5.21905       -1.20333       -1.00146
H          5.03746        1.09299       -1.22722
H          5.45065        1.20001        0.49958
H          3.64007        3.26157        0.33453
H          1.88954        2.68979        0.52285
