15

C	1.013713	0.024538	0.243831
C	2.478301	0.048506	-0.012246
C	3.296764	-0.957148	-0.357466
O	4.588948	-0.619759	-0.569622
C	4.7103	0.751448	-0.189305
C	3.285711	1.321709	-0.107117
O	2.902038	2.116551	-1.20794
H	0.590143	-0.981033	0.105318
H	0.490325	0.715729	-0.436871
H	0.777146	0.351674	1.270743
H	3.066884	-2.015102	-0.501782
H	5.323105	1.285121	-0.930257
H	5.211975	0.791512	0.792661
H	3.174826	1.977123	0.771796
H	2.808648	1.524341	-1.964084
