17
-1634.74
C          1.32348        3.12899        0.46898
C          2.76721        2.82139        0.80946
O          3.37504        2.19267       -0.31792
C          4.74252        1.81287       -0.06776
C          5.60147        1.68929       -1.29542
C          5.79261        2.85156       -0.36790
O          6.96497        2.83077        0.46162
H          0.82070        3.61812        1.30883
H          0.78204        2.21050        0.21965
H          1.26415        3.78232       -0.40773
H          2.81419        2.15085        1.67390
H          3.30299        3.74760        1.04424
H          4.93134        1.10611        0.73350
H          5.13927        1.88301       -2.25680
H          6.35008        0.90760       -1.31714
H          5.44894        3.82214       -0.71118
H          7.29087        1.92927        0.62400
