20
-1917.42
C          0.92539        0.11369       -0.26456
C          2.40693        0.14195        0.02626
C          2.72332        0.02954        1.49801
N          3.30332       -0.55660       -0.90103
C          3.36924        0.90798       -0.91069
C          2.83090        1.63820       -2.11728
C          4.62485        1.53401       -0.35087
H          0.69509       -0.02067       -1.32594
H          0.45992        1.04609        0.07070
H          0.44675       -0.71616        0.26910
H          3.78076       -0.16997        1.69741
H          2.15687       -0.79206        1.95006
H          2.44654        0.95585        2.01254
H          2.79756       -0.91208       -1.71332
H          2.04142        1.08996       -2.63837
H          3.63010        1.81189       -2.84681
H          2.42862        2.61181       -1.81631
H          5.15262        0.88294        0.35257
H          4.38123        2.46989        0.16318
H          5.33090        1.76396       -1.15707
