17
-1697.89
C          1.00000        0.00000        0.00000
C          2.44400        0.00000        0.00000
C          3.63416        0.00000        0.00000
C          5.07816        0.00000        0.00000
C          5.64940        1.41731        0.00285
C          5.31419        2.19829       -1.26262
O          5.93794        3.47804       -1.21188
H          0.60615        1.02094        0.01124
H          0.60588       -0.52014        0.87845
H          0.60596       -0.50056       -0.88978
H          5.45835       -0.54813       -0.86980
H          5.44631       -0.52842        0.88733
H          6.74054        1.36582        0.10886
H          5.29301        1.97350        0.87953
H          4.23702        2.35136       -1.38018
H          5.68627        1.67948       -2.15176
H          5.53738        3.96392       -0.47082
