15
-1477.52
N          0.94876       -0.03171        0.18690
C          2.39380       -0.00894       -0.05806
C          3.07555        1.03231        0.85505
N          4.03230       -0.00704        1.31251
C          3.11178       -1.05909        0.81809
C          2.69037        0.01782       -1.46903
C          2.93560        0.03927       -2.64446
H          0.69959       -0.10189        1.17224
H          0.47764       -0.80325       -0.28179
H          2.46437        1.43053        1.67508
H          3.54957        1.88233        0.35184
H          4.91223        0.02037        0.79416
H          3.61334       -1.87418        0.28468
H          2.51473       -1.50748        1.62235
H          3.14807        0.06339       -3.68879
