20
-1906.64
C          0.46508       -0.49684       -0.70850
C          1.91353       -0.55876       -0.25005
C          2.56870        0.82241       -0.27708
C          4.03395        0.74697        0.16198
N          4.62358        2.09190        0.16442
C          6.08004        2.07998        0.07091
C          5.22580        2.47346       -1.10847
H          0.01478       -1.49397       -0.67699
H          0.39470       -0.12492       -1.73558
H         -0.12335        0.16269       -0.06266
H          2.46621       -1.24678       -0.90025
H          1.95274       -0.96929        0.76549
H          2.01628        1.50209        0.38366
H          2.50499        1.23503       -1.29169
H          4.57605        0.04221       -0.48309
H          4.08658        0.34739        1.18173
H          6.59396        1.12814        0.04257
H          6.59207        2.86577        0.61071
H          5.15982        3.52514       -1.36051
H          5.14729        1.79253       -1.94701
