14

C	0.780872	-0.203339	1.713556
C	1.566865	-0.123557	0.640926
C	2.576427	0.949728	0.411807
O	3.813544	0.35042	0.084821
C	4.821097	1.251917	-0.225332
C	4.580924	1.989843	-1.481095
N	4.361729	2.569816	-2.457916
H	0.02934	-0.990788	1.813391
H	0.853776	0.519524	2.533242
H	1.484667	-0.862288	-0.165236
H	2.680248	1.593905	1.308149
H	2.242195	1.599946	-0.423847
H	5.756003	0.681414	-0.335929
H	4.981963	2.000908	0.577112
