16
-1466.12
C          0.98040       -0.04385        0.02804
N          2.42711        0.05334        0.17787
C          2.92123        1.43365        0.07172
C          2.52731        2.27925        1.28463
C          4.44750        1.39226       -0.05178
H          0.68862       -1.09852        0.03980
H          0.64384        0.38466       -0.92078
H          0.45188        0.44220        0.85291
H          2.86508       -0.51527       -0.54715
H          2.52645        1.90166       -0.83961
H          2.86235        1.81719        2.21919
H          1.44431        2.42135        1.34341
H          2.98039        3.27462        1.22282
H          4.90923        0.93089        0.82782
H          4.85387        2.40410       -0.15367
H          4.75594        0.82339       -0.93535
