15
-1571.36
C          2.35076       -0.59127       -1.41245
C          2.53874       -0.06354        0.00199
C          3.04478        1.34864        0.00510
C          2.30953        2.51736       -0.03081
C          3.13597        3.67732       -0.01401
C          4.47376        3.35547        0.03619
S          4.72652        1.66516        0.06314
H          1.96699       -1.61575       -1.38589
H          3.29677       -0.59753       -1.96378
H          1.63884        0.02337       -1.97405
H          3.22331       -0.72058        0.55087
H          1.57853       -0.10408        0.53178
H          1.22683        2.53994       -0.06893
H          2.76854        4.69576       -0.03721
H          5.31768        4.03160        0.05904
