15
-1524.28
N          3.23206       -0.90692       -2.41333
C          3.37743       -0.49468       -1.33860
C          3.57102        0.03296        0.01790
C          4.34054        1.34657       -0.03355
C          3.58046        2.59948       -0.53373
C          4.29851        3.32395        0.61524
N          4.41579        2.01492        1.29905
H          4.12772       -0.70022        0.61364
H          2.59614        0.16580        0.50245
H          5.33230        1.23509       -0.49603
H          2.49060        2.55696       -0.41922
H          3.82448        2.94092       -1.54277
H          5.26334        3.76319        0.33590
H          3.70584        4.07037        1.15026
H          5.29367        1.88359        1.80154
