19

C	1.195407	0.23836	0.293728
C	2.619923	0.00176	-0.208909
C	2.619488	-0.658861	-1.557773
C	3.133893	-1.857196	-1.835071
C	3.397888	1.304786	-0.255686
C	4.090014	1.810026	0.976149
C	4.893242	1.296474	-0.185757
H	1.20827	0.732751	1.277367
H	0.640916	-0.707584	0.384854
H	0.638676	0.889311	-0.400255
H	3.135702	-0.670349	0.50112
H	2.15287	-0.078121	-2.3657
H	3.605835	-2.467848	-1.057843
H	3.102929	-2.275994	-2.844675
H	2.945994	2.066756	-0.903107
H	4.037943	1.189955	1.876684
H	4.088202	2.885037	1.176245
H	5.450639	2.014443	-0.793327
H	5.384597	0.324253	-0.081252
