21
-2050.56
C          2.18881       -0.53398        1.30279
C          2.48458        0.06694       -0.06400
C          3.07166        1.46404        0.03271
C          2.01485        2.54327        0.09998
C          4.40432        1.71784        0.03579
C          5.46616        0.64244        0.04714
C          5.00106        3.10500        0.02539
H          1.76941       -1.53899        1.18891
H          1.46400        0.07006        1.85865
H          3.09819       -0.61521        1.90783
H          1.55899        0.10256       -0.65224
H          3.14559       -0.60222       -0.62470
H          1.20047        2.24137        0.76734
H          1.59325        2.71849       -0.89502
H          2.38776        3.49161        0.49427
H          5.08045       -0.35569        0.26690
H          6.21183        0.86144        0.81964
H          5.97484        0.60601       -0.92166
H          4.29582        3.88150       -0.27809
H          5.82956        3.15259       -0.69015
H          5.38984        3.35505        1.01734
