13

N	0.903854	0.108579	-0.217979
C	2.276165	0.029554	-0.078728
C	3.182662	1.055774	0.020225
C	4.541424	0.598367	0.076341
N	5.605758	1.477002	0.239653
C	4.636645	-0.770016	0.019064
S	3.070627	-1.512231	-0.099236
H	0.508494	0.984322	0.103487
H	0.385149	-0.68544	0.138257
H	2.894626	2.107649	0.068043
H	5.478692	2.3668	-0.228321
H	6.508946	1.07913	0.011284
H	5.53147	-1.387751	0.056129
