12
-1260.42
C          0.97802       -0.09770       -0.15934
N          2.41536       -0.00947        0.07404
C          2.89946        1.40004        0.07992
C          2.39983        2.18234        1.23559
N          1.97853        2.81283        2.11643
C          4.38056        1.44527        0.03205
N          5.54078        1.46975       -0.05495
H          0.68367       -1.15139       -0.19607
H          0.69681        0.36060       -1.11301
H          0.40514        0.36900        0.64770
H          2.90005       -0.51718       -0.66766
H          2.54205        1.88308       -0.83966
