18
-1763.23
C         -1.80559        0.77327        0.20479
C         -1.62097       -0.67653       -0.39809
N         -0.28530       -0.60096        0.21511
C          0.91167       -1.03758       -0.46953
C          1.90167        0.07500       -0.03077
C          1.02406        1.25618        0.46994
C         -0.29414        0.87283       -0.15044
H         -2.47964        1.43301       -0.34675
H         -2.03889        0.81282        1.27598
H         -1.64845       -0.73683       -1.49220
H         -2.28190       -1.43770        0.02358
H          1.24379       -2.02466       -0.13526
H          0.80737       -1.05331       -1.56182
H          2.56487       -0.26509        0.77281
H          2.52256        0.38297       -0.88005
H          0.97752        1.26997        1.56429
H          1.40006        2.22056        0.11906
H         -0.21181        1.09410       -1.23297
