12

C	1.12675	-0.099115	-0.397645
C	2.338361	0.280067	0.026424
C	3.595704	-0.536546	-0.144558
C	4.381638	-0.098977	-1.295793
N	4.985795	0.237349	-2.223228
C	2.496807	1.58095	0.719893
O	3.543199	1.964651	1.176344
H	0.257519	0.548034	-0.243154
H	0.957743	-1.052035	-0.905911
H	3.357601	-1.603658	-0.270224
H	4.222864	-0.423995	0.754646
H	1.559808	2.187725	0.803327
