15

C	2.071077	-0.268632	-0.215427
O	3.270667	0.460568	-0.197777
C	3.202562	1.802418	-0.205557
C	2.069282	2.532758	-0.231858
N	4.463627	2.3813	-0.184606
C	5.727471	1.807347	-0.132575
N	6.104895	0.599361	-0.093248
H	2.350813	-1.329509	-0.203341
H	1.485873	-0.055569	-1.1266
H	1.452121	-0.043417	0.670112
H	1.085154	2.072319	-0.253836
H	2.123849	3.621473	-0.233591
H	4.450551	3.391864	-0.203883
H	6.496227	2.599114	-0.12742
H	5.30471	-0.034194	-0.104125
