17

C	1.861775	0.142473	-0.75967
N	1.794865	0.000299	0.688274
C	0.557967	0.057571	-0.067735
C	-0.366271	1.245333	0.17473
C	-1.740623	0.697519	-0.194895
N	-1.636428	-0.689418	0.220138
C	-0.351004	-1.159477	-0.254525
H	2.230511	1.10889	-1.123678
H	2.175014	-0.715818	-1.368186
H	2.006676	-0.956827	0.967762
H	-0.32694	1.499683	1.244234
H	-0.080413	2.135772	-0.40261
H	-2.56312	1.209013	0.328769
H	-1.913628	0.818875	-1.288314
H	-2.412026	-1.262995	-0.096613
H	-0.355389	-1.452973	-1.327784
H	0.001064	-2.03168	0.322695
