12
-1338.75
C          1.04821        0.01439        0.00459
C          2.54013       -0.02290        0.00254
N          3.23620       -1.11532        0.00362
C          4.54873       -0.71791        0.00184
O          5.54460       -1.41899        0.00148
C          4.58614        0.75398        0.00031
C          3.33099        1.20138        0.00073
H          0.64393       -1.00134       -0.00879
H          0.69320        0.55116       -0.87926
H          0.69571        0.52682        0.90375
H          5.50401        1.31299       -0.00078
H          2.96226        2.21005        0.00012
