17

C	1.007951	0.071104	0.27264
C	2.485956	0.11302	-0.048793
C	3.359661	0.967588	0.903789
N	4.001117	-0.250832	1.349857
C	3.312844	-1.115854	0.41049
C	5.160317	-0.414888	2.041529
N	5.852519	0.467826	2.647925
H	0.487318	-0.683854	-0.336822
H	0.530028	1.044758	0.08079
H	0.846831	-0.180787	1.33332
H	2.645022	0.360861	-1.108827
H	2.807011	1.51412	1.690067
H	4.048161	1.675595	0.404382
H	3.964857	-1.554792	-0.366363
H	2.724648	-1.927643	0.875707
H	5.497512	-1.466283	2.060516
H	5.422807	1.394381	2.552441
