19
-1801.8
C          1.90347       -0.97114       -0.07974
N          3.25544       -0.62978        0.35396
C          3.68384        0.49215       -0.09670
N          4.92424        0.96573        0.18880
C          5.35895        2.32834       -0.03660
C          4.92418        3.21148        1.12747
C          6.87646        2.34454       -0.19330
H          1.84009       -2.05255       -0.23409
H          1.61450       -0.49038       -1.02127
H          1.18160       -0.69645        0.69484
H          3.08998        1.16184       -0.74525
H          5.42462        0.42028        0.88330
H          4.91405        2.71018       -0.96241
H          5.34037        2.85623        2.07759
H          3.83284        3.21773        1.22799
H          5.25362        4.24506        0.97710
H          7.37722        1.98299        0.71247
H          7.23690        3.35799       -0.39969
H          7.18856        1.69874       -1.02210
