14
-1411.91
O          1.00072       -0.00841       -0.03307
C          2.42000        0.00000        0.00000
C          2.90202        1.36117        0.00000
C          3.29930        2.48307        0.00000
C          3.88873        3.78668        0.04718
C          3.79504        4.67713       -1.16349
N          3.02197        4.96011        0.03903
H          0.72587       -0.93912       -0.01641
H          2.78746       -0.54582       -0.87441
H          2.74655       -0.53062        0.89969
H          4.78664        3.87186        0.65378
H          3.22700        4.33927       -2.01897
H          4.62357        5.33827       -1.38129
H          3.44429        5.71182        0.58587
