13
-1373.02
C          1.99470       -0.57331       -1.23385
C          2.11986        0.33751       -0.25859
C          3.25618        1.24155       -0.06511
N          3.58022        2.17412       -1.13950
C          3.00565        2.72600        0.09326
C          3.82877        3.45907        1.01620
N          4.46729        4.04962        1.78443
H          1.12143       -1.21552       -1.29124
H          2.76588       -0.70200       -1.98770
H          1.32088        0.40111        0.47925
H          4.11100        0.80585        0.44447
H          2.87581        2.13016       -1.87693
H          1.98783        3.08899        0.00158
