17

C	1.043295	0.906686	-0.098195
N	2.264675	1.057686	0.635321
C	3.341967	0.71413	0.080388
N	4.58073	0.850735	0.724613
C	5.758951	0.379848	0.028695
C	5.525421	1.830942	0.201001
C	6.246706	2.683019	1.203662
H	0.346317	0.271664	0.4736
H	1.165327	0.467933	-1.110462
H	0.549396	1.886956	-0.204292
H	3.371052	0.285084	-0.951536
H	5.629175	-0.042815	-0.977469
H	6.494169	-0.140485	0.652696
H	5.208151	2.356008	-0.712087
H	6.625023	2.069878	2.033882
H	5.566179	3.439342	1.623781
H	7.095336	3.205378	0.735562
