17
-1626.77
C          1.80583       -0.86689        0.12241
C          3.13941       -0.48969        0.74848
N          3.76686        0.57801       -0.03179
C          5.06619        0.95759        0.57282
C          5.77890        2.01384       -0.27923
N          5.21407        2.26427       -1.49769
O          6.79560        2.59654        0.08197
H          1.33551       -1.67231        0.69529
H          1.93730       -1.21777       -0.90665
H          1.11748       -0.01541        0.10989
H          3.78534       -1.37490        0.76782
H          2.97366       -0.16455        1.78224
H          3.16263        1.40250       -0.01128
H          5.72852        0.08748        0.63254
H          4.91102        1.37779        1.57222
H          4.52635        1.60308       -1.84290
H          5.70983        2.86207       -2.14294
