17
-1671.52
C          2.49057       -0.92566        1.14196
C          2.08122        0.25188        0.29430
O          0.95269        0.30173       -0.20052
C          3.09248        1.41060        0.15185
C          3.05650        1.94210       -1.28061
C          2.71622        2.51187        1.14298
O          4.43577        1.00312        0.40363
H          3.36779       -1.41041        0.70681
H          1.67459       -1.65341        1.17770
H          2.70540       -0.58964        2.15949
H          3.31210        1.14933       -1.99366
H          3.79395        2.74087       -1.42130
H          2.06883        2.33174       -1.54987
H          2.75089        2.13775        2.17311
H          1.70578        2.89349        0.96067
H          3.42265        3.34778        1.08809
H          4.57063        0.94493        1.36494
