14
-1448.08
C          0.95690       -0.18543       -0.01236
C          2.46120        0.02923        0.02769
C          2.82462        1.47764        0.01217
C          3.06335        2.28051        1.11310
S          3.44392        3.87492        0.61163
C          3.26487        3.38021       -1.01918
N          2.94356        2.11999       -1.21089
H          0.72504       -1.25523       -0.00569
H          0.51844        0.25258       -0.91594
H          0.46812        0.27440        0.85371
H          2.92231       -0.46814       -0.83343
H          2.87318       -0.44655        0.92506
H          3.03153        2.01333        2.15961
H          3.40928        4.07036       -1.83996
