17

C	0.492533	1.316206	0.235391
C	1.727601	0.859602	-0.526756
C	3.001638	1.323024	0.12468
C	4.228865	1.669125	-0.61753
N	3.379438	2.72185	-0.093403
C	3.83435	3.450693	1.024646
N	3.245898	4.445575	1.53036
H	-0.433303	1.002743	-0.26962
H	0.478192	2.414305	0.319013
H	0.473645	0.902248	1.255798
H	1.701644	1.245489	-1.558469
H	1.751374	-0.241828	-0.598637
H	3.164438	0.948265	1.146519
H	4.258924	1.592523	-1.70981
H	5.193724	1.497845	-0.121777
H	4.785333	3.105309	1.479041
H	2.400067	4.644805	0.981975
