19

C	2.028927	-0.498795	-1.291287
N	2.279521	0.072023	0.009623
C	3.166631	1.203772	-0.012249
C	2.584625	2.529576	-0.547128
C	3.238558	3.274893	0.635574
N	4.428583	3.998439	0.249894
C	3.416233	1.897698	1.337404
H	1.3644	-1.371717	-1.202155
H	2.942987	-0.81729	-1.840627
H	1.512453	0.238671	-1.928314
H	2.646838	-0.636037	0.64186
H	4.131966	0.980597	-0.523838
H	1.486392	2.517703	-0.476297
H	2.884142	2.867768	-1.550667
H	2.57429	3.974675	1.168178
H	5.074303	3.385812	-0.24673
H	4.926268	4.324453	1.076991
H	4.380427	1.718196	1.840547
H	2.593347	1.675922	2.035001
