10

N	0.96278	-0.012649	-0.006358
C	2.122004	-0.02179	-0.002249
C	3.547582	-0.000592	0.002737
C	4.349963	1.125143	0.002917
N	5.622688	0.641262	0.008622
C	5.547175	-0.720662	0.011532
N	4.311658	-1.138907	0.008081
H	4.11159	2.185324	-0.000475
H	6.469016	1.196024	0.010393
H	6.434813	-1.353093	0.016201
