14
-1479.26
C          0.92038        0.06138        0.00950
C          2.39802       -0.02885       -0.00858
C          3.30447        1.01191        0.00009
O          4.57873        0.54320       -0.02922
C          4.49957       -0.80797       -0.05971
N          5.65807       -1.47186       -0.09325
C          3.18796       -1.21379       -0.04325
H          0.58440        1.10321        0.02553
H          0.51732       -0.43914        0.89565
H          0.49773       -0.41740       -0.87965
H          3.20781        2.08847        0.02206
H          5.69424       -2.45235        0.15776
H          6.50394       -0.95178        0.11432
H          2.83829       -2.23559       -0.06204
