13
-1229.6
C          1.01422       -0.04271        0.09360
C          2.51968        0.10017       -0.00508
C          3.15282        1.17092        0.88083
S          4.36669       -0.03124        1.25634
O          4.49829       -0.25404        2.67792
O          5.47655       -0.00030        0.33205
O          3.18964       -0.99819        0.66053
H          0.67214       -0.91462       -0.47276
H          0.51596        0.84113       -0.31682
H          0.68926       -0.16511        1.13192
H          2.84265        0.16222       -1.05362
H          2.56854        1.47831        1.75231
H          3.53685        2.04873        0.35631
