20
-1913.58
C          1.24671        0.01137       -0.65091
C          2.74753        0.06880       -0.88475
C          3.48829        0.59328        0.34530
C          4.98636        0.63106        0.07806
C          5.52587        1.75538       -0.83629
C          6.65771        1.86076        0.19988
N          5.73025        1.27893        1.19372
H          0.73865       -0.37386       -1.54027
H          0.84582        1.00691       -0.43508
H          1.00542       -0.64648        0.19016
H          2.95357        0.71023       -1.75031
H          3.11288       -0.93362       -1.14030
H          3.28168       -0.06378        1.19965
H          3.11153        1.58987        0.60609
H          5.39277       -0.35913       -0.17374
H          4.89288        2.64866       -0.89513
H          5.82456        1.45650       -1.84400
H          7.52583        1.22804       -0.01817
H          6.99971        2.87368        0.42724
H          6.16038        0.63180        1.85230
