13
-1375.13
C          0.88107       -0.07930        0.00638
C          2.21633        0.03630       -0.01448
C          2.95569        1.31981       -0.05056
C          4.44001        1.10521       -0.00007
N          5.06247       -0.03051        0.02618
N          4.33401       -1.22301        0.01315
C          3.04337       -1.18296       -0.00036
H          0.24383        0.80034       -0.00284
H          0.38246       -1.04371        0.03365
H          2.68515        1.95280        0.80155
H          2.73433        1.87371       -0.96929
H          5.05879        2.01809        0.00870
H          2.50094       -2.14316       -0.00125
