21

C	1.903519	-0.919903	2.283303
C	1.801804	-0.121953	0.99047
C	2.582592	1.193993	0.981092
C	2.077621	2.176046	2.040121
N	0.664025	2.451321	1.865364
N	3.999928	0.938428	1.163277
C	4.89187	1.995519	0.754735
H	1.416178	-1.900875	2.178437
H	1.406342	-0.397124	3.114145
H	2.951745	-1.086118	2.573076
H	0.747487	0.11372	0.783235
H	2.159996	-0.735319	0.142803
H	2.39233	1.669843	-0.014395
H	2.717236	3.082067	2.018287
H	2.234813	1.719916	3.030718
H	0.511285	2.980563	1.008168
H	0.314877	3.030873	2.624256
H	4.24398	0.082186	0.673075
H	4.807309	2.865457	1.424286
H	4.719202	2.363505	-0.282072
H	5.934431	1.648045	0.81845
