15
-1519.84
C          0.94692       -0.00249        0.03590
C          2.46332        0.00041        0.10070
C          3.00097        0.00424        1.52005
C          3.04343        1.11713       -0.70718
N          3.76347        0.71307       -1.70186
N          3.76603       -0.71475       -1.69904
C          3.04745       -1.11744       -0.70278
H          0.58829       -0.00135       -1.00031
H          0.52940        0.88360        0.52657
H          0.53294       -0.89201        0.52339
H          4.09736        0.00228        1.53515
H          2.66554       -0.88109        2.07132
H          2.66878        0.89451        2.06531
H          2.86054        2.17137       -0.45881
H          2.86830       -2.17133       -0.45010
