15

N	1.100848	0.010247	0.016266
C	2.365892	0.004512	0.078056
N	3.283341	-1.047942	0.251701
C	4.5688	-0.357996	0.052317
C	4.285352	0.61929	-1.115391
C	3.287775	1.197666	-0.063831
C	4.376761	0.849773	0.988438
H	0.731176	-0.939709	0.119753
H	3.115159	-1.890117	-0.289631
H	5.441107	-1.023239	0.100277
H	3.87141	0.202428	-2.047452
H	5.116617	1.305276	-1.334626
H	2.804721	2.176817	-0.150299
H	5.221555	1.552815	0.966028
H	4.059667	0.64067	2.021095
