19

C	0.934902	0.000545	0.022488
C	2.446607	0.014842	0.038961
C	3.199455	1.042894	0.911928
C	4.249491	-0.033167	1.251183
N	5.445466	0.082502	0.446285
C	3.210059	-1.101755	0.802144
N	3.725491	-2.280519	0.16366
H	0.549099	-0.875545	-0.524421
H	0.519178	0.900222	-0.459019
H	0.533124	-0.042989	1.04847
H	2.830367	0.057597	-0.997478
H	2.610153	1.338636	1.793912
H	3.582762	1.954178	0.427679
H	4.554236	-0.101806	2.308741
H	5.218076	0.25926	-0.531086
H	5.966747	-0.792861	0.475601
H	2.611169	-1.410653	1.677384
H	4.181442	-2.038921	-0.714103
H	2.982394	-2.936991	-0.064109
