10
-1115.15
O          2.72988       -1.16372        0.14332
C          2.18672       -0.06889        0.02747
C          2.88335        1.21167        0.01036
C          2.24349        2.43221       -0.12184
S          3.38675        3.71159       -0.09918
C          4.64179        2.56018        0.08344
N          4.26761        1.30151        0.12786
H          1.09075       -0.00344       -0.07398
H          1.18750        2.63610       -0.22828
H          5.68040        2.85642        0.15747
