20
-1911.24
C          2.47962       -1.12634        0.45631
N          2.31103        0.10501        1.21240
C          2.90427        1.28326        0.55710
C          2.41433        2.51257        1.33332
C          4.45084        1.23015        0.50400
C          5.06973        2.40581       -0.20436
C          5.97161        3.22730        0.34904
H          1.88930       -1.92007        0.92536
H          3.52141       -1.46009        0.44286
H          2.12239       -1.01889       -0.57286
H          2.70283       -0.00823        2.14677
H          2.50609        1.36025       -0.46319
H          2.80854        2.52541        2.35598
H          1.31969        2.52755        1.39333
H          2.71953        3.44181        0.84106
H          4.77349        0.33357       -0.03823
H          4.85225        1.14102        1.52194
H          4.76227        2.57706       -1.23417
H          6.31576        3.09365        1.37012
H          6.38774        4.05639       -0.21504
