13

O	3.246078	-0.741759	-0.788491
C	2.249239	0.013215	-0.14862
C	2.716674	1.429703	-0.080456
C	2.127279	2.601152	0.363703
C	3.122974	3.583633	0.164683
N	4.226996	3.067586	-0.3572
N	3.95647	1.773478	-0.490679
H	2.962431	-1.658388	-0.835361
H	2.050126	-0.353742	0.878475
H	1.285443	-0.023592	-0.69367
H	1.126712	2.726005	0.770653
H	3.072774	4.650165	0.384
H	4.635055	1.130596	-0.879808
