19
-1791.01
N          0.96031        2.48146       -1.34097
C          2.29148        1.87734       -1.30814
C          3.06688        2.31320       -0.05939
C          4.43140        1.68411       -0.00871
C          5.57936        2.38285       -0.02335
C          6.94139        1.77412        0.04512
N          7.70599        2.17240       -1.12592
H          0.49217        2.21299       -2.20583
H          1.04954        3.49683       -1.37115
H          2.83851        2.16511       -2.21355
H          2.18227        0.78688       -1.32234
H          2.51647        2.01730        0.84236
H          3.14613        3.40761       -0.03713
H          4.46096        0.59796        0.05739
H          5.54829        3.46935       -0.07606
H          6.89471        0.68097        0.10156
H          7.44806        2.13118        0.94811
H          7.26352        1.77654       -1.95409
H          8.63189        1.75224       -1.07426
