18
-1766.22
C          0.99397       -0.03085        0.01137
C          2.52000        0.00000        0.00000
C          3.05925       -0.76316       -1.20882
C          3.00202        1.36117        0.00000
C          3.39930        2.48307        0.00000
C          3.88132        3.84424        0.00000
N          2.76548        4.77120       -0.12050
H          0.59591        0.48954        0.89130
H          0.62368       -1.06232        0.03784
H          0.57347        0.45603       -0.87748
H          2.87536       -0.50645        0.90592
H          2.73068       -0.30861       -2.15061
H          2.71632       -1.80321       -1.19733
H          4.15503       -0.77158       -1.21033
H          4.57598        4.00353       -0.83154
H          4.42560        4.05856        0.92530
H          2.26117        4.56543       -0.98124
H          3.12801        5.71655       -0.21670
