15
-1424.38
N          1.96850       -0.54606       -1.18715
C          2.72528       -0.19482        0.00411
C          3.03284        1.26608       -0.02361
C          4.27308        1.77986       -0.00501
C          4.57984        3.24016       -0.03463
O          5.31294        3.56118        1.13595
H          1.75937       -1.54310       -1.16400
H          2.56184       -0.40514       -2.00455
H          3.63580       -0.80096        0.05620
H          2.12684       -0.41847        0.89285
H          2.17138        1.93178       -0.05447
H          5.13549        1.11709        0.02215
H          3.67865        3.86078       -0.06583
H          5.19489        3.48032       -0.90636
H          4.76609        3.28315        1.89058
