19

C	0.700058	0.329374	0.131772
C	2.101687	-0.208312	0.170111
C	2.20458	-1.646353	0.585569
C	3.146166	0.572651	-0.152951
C	4.605111	0.218143	-0.159556
C	5.372292	0.997532	0.869762
C	6.34652	1.869854	0.608477
H	0.669991	1.384543	-0.174673
H	0.217313	0.24451	1.121092
H	0.074235	-0.250241	-0.568796
H	1.621144	-2.289027	-0.095495
H	1.771937	-1.788529	1.590694
H	3.234346	-2.0257	0.608477
H	2.931098	1.612564	-0.428779
H	5.030699	0.42202	-1.158051
H	4.7431	-0.859981	0.025026
H	5.068559	0.829403	1.911222
H	6.670864	2.071495	-0.418179
H	6.859461	2.413035	1.406558
