19

C	0.763164	-0.315204	0.689029
C	2.149821	-0.452254	0.06841
C	2.428595	-1.898444	-0.328477
C	2.297667	0.515172	-1.107581
C	3.674442	0.531633	-1.782538
C	4.773851	0.852016	-0.879112
C	5.678282	1.120452	-0.118855
H	0.563351	0.719248	1.009585
H	0.652915	-0.96728	1.569159
H	-0.021665	-0.596566	-0.033718
H	2.896144	-0.159832	0.829383
H	1.754308	-2.223265	-1.139638
H	2.271436	-2.577127	0.524177
H	3.464551	-2.043558	-0.670382
H	2.064061	1.536278	-0.761267
H	1.544343	0.268299	-1.876646
H	3.666821	1.266924	-2.605167
H	3.878967	-0.443121	-2.257041
H	6.482686	1.35945	0.551649
