12

C	0.989151	0.0453	0.002905
C	2.478971	-0.043402	0.002814
N	3.209746	1.044195	0.000411
O	4.521878	0.616934	0.003385
C	4.554072	-0.703936	0.00623
O	5.771734	-1.225287	0.008593
C	3.28507	-1.217764	0.005801
H	0.53602	-0.9539	-0.015191
H	0.633758	0.605721	-0.874143
H	0.631795	0.573374	0.899197
H	5.704664	-2.186022	0.010706
H	2.971381	-2.257834	0.007641
