16
-1555.53
C          2.05255       -1.61219        0.29246
C          3.54924       -1.36526        0.40044
N          3.80972       -0.34804        1.42581
C          5.27771       -0.14039        1.56716
C          5.51958        1.13141        2.37926
O          4.40706        1.91092        2.42886
O          6.58171        1.44060        2.89371
H          1.84855       -2.35889       -0.48186
H          1.51809       -0.69431        0.02452
H          1.64196       -1.98525        1.23690
H          3.92406       -1.02577       -0.57167
H          4.05315       -2.30497        0.65417
H          3.46131       -0.71042        2.32081
H          5.74674        0.00765        0.58899
H          5.72924       -0.99006        2.08810
H          3.71101        1.42735        1.91875
