20
-1901.27
C          2.10978       -0.32213       -1.33449
N          2.31238        0.15075        0.04040
C          2.88848       -0.93676        0.84063
C          3.24243        1.29266        0.02980
C          2.52904        2.55592       -0.52391
C          3.20841        3.33806        0.62053
C          3.22092        2.01029        1.40719
H          1.63658        0.44921       -1.95104
H          1.43248       -1.18339       -1.34594
H          3.04978       -0.61652       -1.81543
H          2.21747       -1.80293        0.84651
H          3.01010       -0.63506        1.88611
H          3.86476       -1.25963        0.46115
H          4.24445        1.11314       -0.37973
H          1.43418        2.56014       -0.45284
H          2.81871        2.86025       -1.53330
H          4.20703        3.71431        0.36895
H          2.62072        4.14780        1.05987
H          4.09871        1.85035        2.03911
H          2.31726        1.86337        2.01186
