20

C	2.855926	-0.873033	-1.103747
C	2.638736	-0.189319	0.236175
C	3.236695	1.215292	0.325254
N	2.807488	1.839434	1.567812
C	3.140327	3.235655	1.715067
C	4.736652	1.189676	0.175625
C	5.443845	1.881483	-0.718937
H	2.403023	-1.875315	-1.118435
H	3.926841	-0.982973	-1.334687
H	2.402408	-0.291837	-1.922857
H	3.071246	-0.805712	1.046698
H	1.563999	-0.098557	0.461304
H	2.817958	1.821136	-0.501006
H	3.150556	1.300964	2.36109
H	2.623329	3.822985	0.938119
H	4.221601	3.475033	1.637101
H	2.777994	3.600274	2.688407
H	5.263993	0.560096	0.907649
H	4.949555	2.517068	-1.462143
H	6.536519	1.838419	-0.752068
