17

N	1.131609	0.283953	-0.424748
C	2.499415	0.03296	-0.096646
C	3.179923	-1.109761	-0.796779
C	3.526503	0.302168	-1.156149
N	4.797009	0.801539	-0.742766
C	5.802942	0.9919	-1.757989
C	5.136344	2.153466	-1.113931
H	0.872233	1.23844	-0.183875
H	0.516746	-0.332211	0.102651
H	2.860141	0.228447	0.925203
H	2.581137	-1.678954	-1.51175
H	3.930106	-1.67412	-0.238136
H	3.122233	0.675676	-2.111656
H	5.529609	0.776321	-2.799488
H	6.827354	0.712618	-1.487361
H	5.657297	2.751173	-0.357655
H	4.416878	2.715486	-1.724927
