15

C	1.3469	-0.150713	-0.528162
O	2.74029	-0.19508	-0.401203
N	3.232353	1.078771	-0.226663
C	4.50119	1.06475	-0.088518
N	5.204395	2.223594	0.094907
C	6.569458	2.29579	0.266811
C	7.282106	3.414349	0.456269
H	1.019139	-1.189851	-0.668454
H	1.034809	0.450861	-1.400179
H	0.866592	0.263864	0.376073
H	5.084059	0.132388	-0.110187
H	4.660494	3.079915	0.11207
H	7.065271	1.319617	0.237102
H	6.814509	4.401987	0.492847
H	8.362494	3.355608	0.585909
