11

N	0.952371	-0.008416	-0.204137
C	2.332852	0.049112	-0.068621
C	3.089668	1.199343	-0.007353
S	4.776584	0.856857	0.068003
C	4.491779	-0.831806	0.034311
C	3.157401	-1.123061	-0.043042
H	0.465483	0.838403	0.062492
H	0.52532	-0.823083	0.220009
H	2.735456	2.229206	-0.013961
H	5.324774	-1.533097	0.067928
H	2.761791	-2.139437	-0.090329
