15
-1564.26
C          0.87148        0.77763        0.11993
C          2.17146        0.57812       -0.10540
O          3.11736        1.50463        0.25025
C          4.44230        1.23645        0.00933
C          5.40577        2.10859        0.32438
C          6.80550        1.85258        0.08465
C          7.77003        2.72617        0.39608
H          0.13528        0.03537       -0.16780
H          0.52235        1.68748        0.59669
H          2.54540       -0.31889       -0.57878
H          4.64096        0.27685       -0.44749
H          5.12922        3.05540        0.78240
H          7.07971        0.90315       -0.37020
H          7.55487        3.68770        0.85096
H          8.81098        2.49076        0.19762
