12

C	5.207058	-1.565257	0.838394
C	4.321508	-0.563991	0.754983
C	3.000181	-0.731896	0.178733
N	2.205112	0.266633	0.126951
O	1.007504	-0.110503	-0.453408
C	0.095592	0.886377	-0.558753
O	0.221278	2.015686	-0.215861
H	6.196087	-1.415879	1.277009
H	4.970542	-2.567984	0.468856
H	4.559474	0.438512	1.123803
H	2.697617	-1.718109	-0.207201
H	-0.803253	0.43729	-1.033605
