13

O	1.4707	-0.248134	-0.827878
C	2.673008	-0.056035	-0.140703
C	2.937761	1.406001	-0.074057
C	2.224785	2.490148	-0.488548
C	3.014331	3.632223	-0.136199
C	4.135815	3.144374	0.461834
O	4.095037	1.79235	0.501772
H	1.27233	-1.188141	-0.836604
H	3.533312	-0.549619	-0.639865
H	2.63982	-0.46068	0.893153
H	1.257819	2.457916	-0.982398
H	2.777194	4.680051	-0.308461
H	5.018239	3.610265	0.892404
