15

C	0.383507	0.410584	-0.075096
C	1.81588	0.08764	0.147123
C	2.845706	0.937144	0.017165
C	4.238252	0.491439	0.270008
O	4.505336	-0.650491	0.595893
C	5.302762	1.524212	0.104278
C	6.587845	1.22451	0.312235
H	-0.042951	-0.236696	-0.859983
H	0.23008	1.459853	-0.365556
H	-0.205379	0.210027	0.836192
H	2.069911	-0.93768	0.446444
H	2.678991	1.97867	-0.278391
H	4.998796	2.533489	-0.191973
H	6.858252	0.206003	0.607593
H	7.382811	1.965198	0.197147
