14
-1423.2
C          0.79124        0.11251        0.04607
C          2.27466       -0.02068        0.17725
C          3.14530        0.94648       -0.15131
C          4.63353        0.81208       -0.03034
C          5.13604        1.82661        0.96647
O          5.84007        2.78718        0.66259
H          0.40775       -0.65169       -0.63677
H          0.49587        1.09379       -0.33826
H          0.31733       -0.02868        1.02217
H          2.63539       -0.97428        0.55827
H          2.77725        1.89384       -0.54411
H          5.10392        0.99693       -1.00144
H          4.93812       -0.18198        0.31247
H          4.83678        1.65663        2.01500
