18
-1802.
C          3.40398       -0.72258       -0.63505
C          2.70749       -0.01647        0.51968
C          3.16256        1.44354        0.71473
C          2.31023        2.11547        1.79852
C          4.66677        1.60633        1.00541
C          5.11171        0.90219        2.21735
N          5.46579        0.34796        3.17335
H          2.96649       -1.71500       -0.78603
H          4.47144       -0.85981       -0.43902
H          3.29076       -0.15844       -1.56626
H          2.85790       -0.59435        1.43905
H          1.62820       -0.02779        0.32155
H          2.96102        1.98008       -0.22284
H          2.41722        1.61614        2.76719
H          1.24946        2.09019        1.52583
H          2.59499        3.16584        1.92206
H          4.89879        2.67353        1.10889
H          5.25106        1.25514        0.14794
