15

C	2.498174	-0.52541	-1.408079
C	2.38092	0.11037	-0.034986
N	2.900329	1.461509	-0.006826
C	2.208376	2.613262	0.166518
C	3.125406	3.64384	0.080803
C	4.352658	2.987705	-0.151508
N	4.198697	1.671207	-0.202856
H	2.129288	-1.561397	-1.384632
H	3.549528	-0.53352	-1.728609
H	1.914279	0.035621	-2.152894
H	2.933867	-0.478941	0.713354
H	1.332797	0.159895	0.295276
H	1.134119	2.611329	0.34162
H	2.934542	4.710027	0.177959
H	5.342788	3.424522	-0.280358
