15
-1420.3
C          1.37188       -0.07422       -0.21825
O          2.74471        0.18224        0.05394
C          3.17665        1.49420        0.01432
C          2.39963        2.57106       -0.19741
C          4.66266        1.63398        0.25716
N          5.43247        0.97754       -0.79778
H          1.21662       -1.15629       -0.17461
H          1.10055        0.26411       -1.22359
H          0.73046        0.38826        0.53875
H          1.33281        2.51046       -0.37045
H          2.83042        3.56779       -0.21528
H          4.90762        1.17794        1.22369
H          4.96419        2.68527        0.31127
H          5.07830        0.02374       -0.88234
H          6.40003        0.89390       -0.49471
