18
-1760.42
C          1.16895       -0.51816       -0.04088
C          2.67142       -0.28781        0.00019
C          3.01026        1.20254        0.00030
C          4.51919        1.43000        0.04476
C          4.87530        2.90096        0.01659
N          6.21708        3.14883        0.02932
O          4.06685        3.81956       -0.01270
H          0.95050       -1.59022       -0.05091
H          0.72862       -0.07297       -0.93825
H          0.68179       -0.07995        0.83539
H          3.13358       -0.77408       -0.86740
H          3.08459       -0.76440        0.89726
H          2.53778        1.68910        0.86267
H          2.59120        1.67540       -0.89663
H          4.99635        0.94560       -0.81484
H          4.93642        0.99423        0.96004
H          6.91522        2.41928        0.04370
H          6.51658        4.11517        0.00735
