13

C	0.896773	-0.042572	-0.007792
N	2.330716	0.010211	0.025108
S	3.170208	1.501086	-0.024186
C	4.676731	0.653088	-0.025745
C	4.530144	-0.685719	-0.001652
C	3.136725	-1.126639	0.013722
N	2.758878	-2.351884	0.015349
H	0.481959	0.972212	0.050436
H	0.506612	-0.615444	0.851333
H	0.530133	-0.510637	-0.938867
H	5.604951	1.225455	-0.042762
H	5.346129	-1.406366	0.000346
H	1.742071	-2.44301	0.019269
