15
-1491.75
C          0.80543       -0.01711       -0.47899
C          2.22986       -0.06745       -0.00417
C          3.22334       -0.83492       -0.85626
O          3.13575        0.59333       -0.90699
C          2.51533        0.20040        1.47472
C          1.52265        0.71475        2.48634
O          1.83037       -0.67882        2.38811
H          0.72492       -0.21588       -1.55323
H          0.37307        0.97067       -0.29323
H          0.20187       -0.76622        0.04379
H          2.86347       -1.39277       -1.71163
H          4.08929       -1.27018       -0.37237
H          3.55855        0.40511        1.70657
H          0.54550        1.04189        2.15435
H          1.90347        1.25253        3.34737
