18
-1771.85
C          0.93820        0.01831       -0.29121
C          2.38815       -0.22518        0.02398
C          2.70375       -1.60132        0.53920
C          3.31484        0.73794       -0.15569
C          4.75152        0.64890        0.10351
C          5.64701        0.02768       -0.93701
N          5.62290        1.47021       -0.73193
H          0.75863        1.03204       -0.66319
H          0.32707       -0.11991        0.60631
H          0.59445       -0.68328       -1.05811
H          2.13891       -1.79963        1.45632
H          3.76459       -1.73698        0.77142
H          2.42959       -2.35518       -0.20632
H          2.97871        1.70385       -0.53318
H          5.03547        0.56574        1.14742
H          5.20813       -0.32760       -1.86082
H          6.53286       -0.49864       -0.60797
H          6.43778        1.77858       -0.20032
