18
-1719.19
N          2.00291       -0.47201       -1.33377
C          2.30030        0.03469        0.00941
C          3.17331        1.29685       -0.06790
O          4.40166        0.97960       -0.77815
C          2.43294        2.58061       -0.54741
C          3.16190        3.35490        0.56528
C          3.36894        2.01587        1.29646
H          1.64205       -1.42102       -1.25924
H          2.89738       -0.54950       -1.82601
H          2.82936       -0.74070        0.57417
H          1.35850        0.23737        0.53048
H          4.85163        1.83154       -0.90893
H          1.34427        2.55305       -0.42356
H          2.66185        2.91098       -1.56469
H          4.09562        3.82410        0.23544
H          2.56141        4.09694        1.09735
H          4.35060        1.89283        1.76296
H          2.59614        1.79771        2.04287
