15
-1522.62
C          1.20466       -0.12868        0.07316
C          2.67473        0.16610        0.05067
N          3.11365        1.31238       -0.40292
C          4.57755        1.29927       -0.15335
C          4.84617       -0.04653        0.45014
C          4.59186       -1.29406       -0.33071
N          3.56394       -0.76090        0.57083
H          1.03403       -1.20809        0.05961
H          0.71985        0.32344       -0.79580
H          0.77122        0.29198        0.98413
H          5.12169        1.43354       -1.09291
H          4.83902        2.10455        0.53967
H          5.43649       -0.05410        1.35259
H          5.01813       -2.22219        0.02168
H          4.34155       -1.23809       -1.38131
