15

C	1.013513	0.079512	0.089566
C	2.463633	0.00982	0.042348
C	3.676022	-0.085273	0.002827
C	5.10714	-0.097706	-0.023491
C	5.817141	-1.222034	-0.209513
C	5.751786	1.261349	0.162194
O	5.301313	1.931761	1.303672
H	0.659615	1.120193	0.028386
H	0.626192	-0.353555	1.025741
H	0.564196	-0.477815	-0.747609
H	5.330223	-2.186164	-0.370526
H	6.910435	-1.195964	-0.209475
H	5.572453	1.855557	-0.759541
H	6.841213	1.137858	0.260839
H	4.336285	1.93524	1.275262
