16
-1529.77
N          0.98839        0.00412        0.09303
C          2.45606       -0.00559       -0.02087
C          2.95892       -1.33819       -0.59944
O          2.64864       -1.46641       -1.98508
C          3.16155       -0.37034       -2.72949
O          2.63951        0.88051       -2.30355
C          2.94924        1.12854       -0.93413
H          0.66537        0.88497        0.48491
H          0.67153       -0.74507        0.70304
H          2.86516        0.13262        0.98623
H          2.51189       -2.18748       -0.07093
H          4.04614       -1.42164       -0.47442
H          4.25808       -0.36078       -2.69040
H          2.87120       -0.51326       -3.77435
H          4.03565        1.25068       -0.83695
H          2.49510        2.08449       -0.65059
