19
-1914.37
C          0.99710        0.20473        0.87805
C          2.47510        0.09215        0.68446
C          3.26619        1.13498        0.38522
C          4.71518        1.09779        0.18405
C          5.40325       -0.23934        0.28656
C          5.35154        2.25598       -0.08819
C          6.81182        2.48709       -0.31774
H          0.72749       -0.12336        1.88713
H          0.47721       -0.43554        0.15818
H          0.63544        1.22974        0.74526
H          2.88330       -0.90648        0.80429
H          2.79625        2.11280        0.28193
H          4.97243       -0.94960       -0.42811
H          5.29714       -0.64880        1.29715
H          6.47247       -0.19809        0.07063
H          4.76585        3.17312       -0.15297
H          7.43521        1.60843       -0.14669
H          7.16553        3.27340        0.35695
H          6.97415        2.82531       -1.34577
