16
-1615.66
C          0.94269        0.00024        0.95587
C          0.28002       -1.01269       -0.03054
C          0.77002       -0.01522       -1.12676
C          0.29919        1.00903       -0.04662
C         -1.20554        0.77905        0.07918
C         -1.21994       -0.75243        0.09132
H          2.03787       -0.00996        0.99034
H          0.55973        0.01196        1.98059
H          0.64571       -2.03827       -0.05318
H          0.22365       -0.01762       -2.07479
H          1.84477       -0.02697       -1.34105
H          0.68407        2.02710       -0.08602
H         -1.61201        1.19942        1.00409
H         -1.75888        1.18670       -0.77204
H         -1.78075       -1.16297       -0.75354
H         -1.63443       -1.15029        1.02261
