15

O	2.0486	-0.370825	-1.285267
C	2.288219	0.083619	0.020967
C	3.262602	1.23544	-0.05062
C	2.650271	2.524621	-0.630257
N	2.418217	2.989353	0.740131
C	3.388016	2.027662	1.264027
H	1.358764	-1.039569	-1.254086
H	2.716572	-0.713621	0.664643
H	1.361186	0.440086	0.514402
H	4.199367	0.894872	-0.515617
H	1.746531	2.401293	-1.25159
H	3.392247	3.113418	-1.204568
H	2.592712	3.971986	0.932398
H	4.412029	2.423866	1.410667
H	3.084687	1.51307	2.19451
