15

C	1.881702	-0.117236	-0.067383
C	3.353464	-0.477274	-0.043998
C	4.236608	0.653504	0.425611
O	3.797996	1.7456	0.693745
C	5.740172	0.408621	0.584908
N	6.200979	-0.846854	0.275803
N	6.505103	1.310401	1.05575
H	1.274663	-0.961829	-0.423243
H	1.700283	0.746361	-0.7226
H	1.533421	0.16243	0.937152
H	3.702991	-0.776207	-1.05073
H	3.554774	-1.349309	0.603048
H	5.734383	-1.38107	-0.442989
H	7.20984	-0.941889	0.294814
H	5.92863	2.128903	1.274171
