19

C	2.765516	-0.955375	-0.767745
C	2.244459	0.153193	0.136784
C	3.265449	1.232897	0.388682
N	3.539936	2.240157	-0.632111
C	2.859586	2.636159	0.600395
C	3.624809	3.587689	1.477122
N	3.573296	4.915417	0.89902
H	2.004707	-1.732699	-0.935659
H	3.65032	-1.442232	-0.327886
H	3.065808	-0.56056	-1.75093
H	1.925985	-0.27022	1.10509
H	1.3418	0.6109	-0.30556
H	4.17215	0.882521	0.901851
H	2.869677	2.152728	-1.396613
H	1.786014	2.858374	0.531319
H	4.649469	3.179724	1.612493
H	3.157483	3.609899	2.477149
H	4.015803	4.881356	-0.018837
H	4.114084	5.572811	1.456117
