16

C	0.99335	-1.283326	1.428339
C	1.78977	-0.889866	0.197803
O	1.112259	-1.394651	-0.910618
C	1.95203	0.637517	0.13376
N	3.059438	1.121538	-0.676445
C	3.247494	0.847554	-1.980389
O	2.5741	0.089621	-2.654345
H	1.514155	-1.014748	2.359901
H	0.824043	-2.36888	1.417166
H	0.008018	-0.792441	1.41435
H	2.812895	-1.319926	0.284481
H	1.531954	-1.016565	-1.706327
H	2.117458	1.032549	1.146145
H	0.998013	1.054946	-0.235255
H	3.702133	1.780032	-0.255891
H	4.11668	1.396457	-2.411654
