13
-1320.97
C          1.00000        0.00000        0.00000
C          2.44400        0.00000        0.00000
C          3.63416        0.00000        0.00000
C          5.06549       -0.00397        0.02443
C          5.81028       -0.76303       -1.04220
N          5.78019        0.69353       -1.04286
H          0.60595        1.02086        0.01164
H          0.60592       -0.52055        0.87823
H          0.60601       -0.50032       -0.88995
H          5.52279        0.04843        1.00759
H          5.24730       -1.24709       -1.83106
H          6.74932       -1.23302       -0.78244
H          6.65219        1.08403       -0.68478
