16
-1575.89
C          1.78644       -0.15958        0.56259
C          2.60678       -0.20093       -0.72232
C          1.85247       -1.02692       -1.74902
O          2.28049       -2.08068       -2.21847
N          2.74888        1.16613       -1.25437
C          3.99784        1.81563       -0.85837
C          3.80526        1.29764       -2.25815
H          2.29441        0.42146        1.34003
H          1.62524       -1.17245        0.94974
H          0.79641        0.28298        0.39785
H          3.56735       -0.69403       -0.52634
H          0.86754       -0.63485       -2.05423
H          4.68429        1.28932       -0.20428
H          3.94630        2.88698       -0.70145
H          3.61812        2.01807       -3.04539
H          4.34804        0.41148       -2.56481
