15
-1491.51
C          0.93555        0.03605       -0.12529
C          2.40528        0.10579        0.08798
O          3.17633       -0.65322       -0.84373
C          3.31311        0.78153       -0.91501
C          4.69701        1.29637       -0.57332
C          5.90182        1.05409       -1.44825
O          5.20757        2.30518       -1.46157
H          0.44675        0.89113        0.35073
H          0.53375       -0.87861        0.32065
H          0.67302        0.04094       -1.18784
H          2.69010        0.07853        1.13082
H          2.83089        1.26660       -1.76036
H          4.89673        1.44158        0.48426
H          5.78876        0.40216       -2.30552
H          6.87709        1.02428       -0.97935
