18

C	0.92749	-0.082735	0.01441
C	2.447026	-0.043967	0.013912
C	3.013156	1.36948	0.007969
C	4.533763	1.410976	0.005579
C	5.076303	2.841669	0.002334
C	6.532969	2.90666	-0.001519
N	7.689849	2.941004	-0.004847
H	0.548197	-1.115297	0.0195
H	0.514017	0.41891	-0.87551
H	0.514392	0.427546	0.899575
H	2.834088	-0.591932	-0.863567
H	2.83455	-0.584569	0.895744
H	2.631465	1.920759	0.887265
H	2.628909	1.914419	-0.874157
H	4.923669	0.873563	-0.875366
H	4.926419	0.876521	0.88711
H	4.71109	3.39358	0.885149
H	4.70654	3.391235	-0.880051
