20
-1910.69
C          1.11959        0.39628        0.94919
N          2.57409        0.43285        0.89453
C          3.03642        1.47553       -0.01607
C          4.53353        1.45747        0.00642
C          5.31570        0.63695       -0.99217
C          5.31288        2.14065       -1.09138
C          6.53781        2.92132       -0.75499
H          0.80188       -0.36794        1.66428
H          0.68828        0.14763       -0.02512
H          0.71115        1.35341        1.28822
H          2.92368       -0.46759        0.56903
H          2.69016        2.45998        0.31906
H          2.65623        1.30401       -1.03046
H          4.92203        1.53913        1.01686
H          4.77329        0.08090       -1.74848
H          6.21278        0.13941       -0.64086
H          4.76351        2.59246       -1.90995
H          7.11792        2.45247        0.04761
H          6.26321        3.92972       -0.43090
H          7.18325        3.00853       -1.63414
