12
-1276.37
O          2.07549       -0.86935        0.36008
C          2.45182        0.18308       -0.13955
N          3.00489        1.24289        0.55367
C          4.08052        2.00975       -0.00029
C          2.72229        2.59511        0.16777
C          2.48416        3.52917        1.22565
C          2.28050        4.31220        2.11264
H          2.37784        0.36563       -1.22557
H          4.41185        1.71535       -0.98685
H          4.85759        2.23025        0.71867
H          2.10322        2.70295       -0.71601
H          2.09794        4.99915        2.90643
