19
-1917.
C         -0.92068        0.00119       -1.15376
C         -0.60427        1.05040       -0.04133
C         -1.20366       -0.00145        0.93594
C         -0.60444       -1.05107       -0.04390
C          0.88847       -1.27668        0.21850
C          1.68136       -0.00049       -0.08568
C          0.88933        1.27489        0.22162
H         -1.96572        0.00175       -1.48860
H         -0.27914        0.00216       -2.03898
H         -1.16801        1.98637       -0.10050
H         -0.81749       -0.00280        1.95918
H         -2.30000       -0.00131        0.98151
H         -1.16859       -1.98665       -0.10550
H          1.04068       -1.57716        1.26231
H          1.26463       -2.09439       -0.40726
H          1.92714        0.00062       -1.15574
H          2.64121       -0.00143        0.44169
H          1.26527        2.09395       -0.40203
H          1.04121        1.57276        1.26612
