15
-1424.7
O          0.70161        1.60217       -0.24594
N          1.97789        1.32347       -0.75123
C          2.85083        1.53265        0.18143
C          4.36080        1.30234       -0.08633
C          5.13479        2.39338       -0.85856
C          6.25030        2.13919        0.16401
N          5.21488        1.63572        1.09492
H          0.12988        1.43797       -1.01930
H          2.55675        1.87028        1.19203
H          4.55639        0.29112       -0.46933
H          4.69217        3.39438       -0.80255
H          5.37987        2.16420       -1.89889
H          6.97592        1.37633       -0.14182
H          6.78725        3.02606        0.51066
H          5.50239        0.83040        1.64995
