14

C	1.64361	-0.327149	-1.197359
C	2.208204	0.160591	-0.092024
C	3.31926	1.141482	-0.048389
C	3.68998	2.003262	-1.205401
C	2.990607	2.630638	-0.022376
C	3.705723	3.505287	0.86624
N	4.289031	4.202834	1.584826
H	0.815336	-1.038043	-1.142255
H	1.988421	-0.044122	-2.196199
H	1.840718	-0.168907	0.887164
H	4.141672	0.865129	0.621257
H	3.105166	1.932761	-2.125248
H	4.745297	2.242312	-1.352485
H	1.936514	2.892947	-0.15869
