11

O	0.588959	-0.993792	-0.799536
C	-0.426712	-1.3482	0.035334
N	-1.391733	-0.577923	0.332926
C	-1.385947	0.738956	-0.057326
C	-0.279175	1.521067	-0.15664
C	1.048275	1.015506	0.112865
N	1.5066	-0.170563	-0.064459
H	-0.391823	-2.378779	0.414008
H	-2.378279	1.18647	-0.178911
H	-0.399214	2.599129	-0.290195
H	1.783538	1.681958	0.584215
