21
-1994.13
C          0.95882       -0.12069       -0.00639
C          2.47905        0.02222       -0.00429
O          2.99321       -0.72036       -1.11235
C          3.01821        1.48460       -0.02463
C          2.56887        2.25520       -1.28040
C          2.54160        2.25248        1.22254
C          4.56176        1.45436       -0.01171
H          0.49997        0.35461        0.86417
H          0.68439       -1.18168        0.00490
H          0.51523        0.29729       -0.91533
H          2.85869       -0.47682        0.89594
H          2.55388       -0.40413       -1.91950
H          2.90572        1.76458       -2.19935
H          2.98223        3.27059       -1.28437
H          1.47949        2.35136       -1.32740
H          2.80720        1.71737        2.14093
H          1.45684        2.40010        1.21841
H          3.00124        3.24624        1.27371
H          4.93741        0.91265        0.86348
H          4.97754        2.46779        0.02266
H          4.96332        0.96663       -0.90650
