14
-1421.71
C          1.19895        0.45097       -0.58194
O          2.57961        0.34783       -0.23099
C          3.24699        1.52746       -0.28893
O          2.78125        2.61083       -0.60223
C          4.65249        1.27305        0.08305
C          5.53788        2.27608        0.09451
N          6.86898        2.19370        0.41679
H          0.76497       -0.55206       -0.54855
H          1.08705        0.84167       -1.59848
H          0.66908        1.08297        0.13732
H          4.92652        0.25994        0.34502
H          5.22914        3.29059       -0.16036
H          7.26335        1.25684        0.38033
H          7.45160        2.88805       -0.04746
