20
-1867.38
C          1.37278       -0.58041        0.09908
C          2.88371       -0.42006        0.17280
C          3.31930        0.97496       -0.28400
C          4.82843        1.22184       -0.13849
N          5.64067        0.31352       -0.97125
C          5.18334        2.67410       -0.51696
O          6.59912        2.84283       -0.46452
H          1.08234       -1.58584        0.41892
H          1.01228       -0.43197       -0.92410
H          0.86882        0.14172        0.74949
H          3.34697       -1.18946       -0.45404
H          3.21373       -0.59466        1.20348
H          2.78197        1.72560        0.30999
H          3.01479        1.12676       -1.32753
H          5.13252        1.05792        0.90264
H          5.28683        0.32576       -1.92884
H          5.51505       -0.64464       -0.64437
H          4.72570        3.38601        0.17659
H          4.85201        2.91477       -1.53291
H          6.95373        1.97561       -0.75409
