18
-1783.86
N          0.99036        0.04297        0.01776
C          2.44329        0.00104        0.01995
C          3.00927       -1.12190        0.90489
C          3.85048       -0.27900        1.86540
C          4.54244        0.79358        0.96664
C          3.04988        1.20480        0.74647
C          2.92235        0.90597        2.27815
H          0.62430       -0.81065       -0.40312
H          0.67104        0.81186       -0.56946
H          2.81587       -0.07688       -1.00732
H          3.62222       -1.82035        0.32570
H          2.23995       -1.69193        1.43586
H          4.43763       -0.77581        2.63633
H          5.08885        0.42556        0.09245
H          5.17084        1.52473        1.48861
H          2.84402        2.21313        0.38806
H          3.36359        1.65100        2.95044
H          1.92904        0.64437        2.65453
