10

O	0.99897	-0.223462	-0.069408
C	2.195658	-0.080555	-0.037674
C	2.871763	1.222838	-0.040103
C	4.218397	1.295098	-0.002146
C	4.968085	2.496661	-0.00047
C	5.628123	3.516079	0.001699
H	2.889104	-0.963241	-0.002819
H	2.242351	2.116625	-0.07343
H	4.794722	0.359992	0.030356
H	6.207928	4.421366	0.003526
