17
-1695.8
C          0.85422        0.16895       -0.06410
C          2.37754        0.02768        0.02761
C          2.74296       -0.75773        1.29005
O          2.79343       -0.75114       -1.10107
C          3.02739        1.43282        0.00000
C          4.47092        1.41019        0.02895
C          5.66069        1.39154        0.05282
H          0.56433        0.68123       -0.98907
H          0.44823        0.73065        0.78466
H          0.37078       -0.81428       -0.09286
H          2.46415       -0.21204        2.19867
H          3.81554       -0.97677        1.32849
H          2.23685       -1.72971        1.30211
H          2.77403       -0.18219       -1.88911
H          2.65201        2.02589        0.84315
H          2.71253        1.95331       -0.91388
H          6.72597        1.36699        0.07379
