19
-1805.58
N          0.98629       -0.01006        0.12311
C          2.45053       -0.00272        0.01574
C          2.93517       -1.35431       -0.52010
C          2.60792       -1.51625       -2.00493
C          3.12174       -0.32989       -2.82131
N          2.62407        0.94915       -2.31779
C          2.96437        1.13658       -0.90359
H          0.64848        0.92319        0.34562
H          0.69398       -0.63151        0.87256
H          2.85905        0.15452        1.02125
H          2.49966       -2.18206        0.05199
H          4.02276       -1.42195       -0.38587
H          3.05945       -2.44213       -2.37972
H          1.52391       -1.61625       -2.14028
H          4.21889       -0.32631       -2.82398
H          2.80240       -0.44812       -3.86276
H          3.01527        1.71034       -2.86831
H          4.05463        1.21903       -0.80064
H          2.54877        2.09391       -0.56633
