17

C	0.911634	-0.194683	-0.226939
N	2.311715	-0.064822	0.089784
C	2.867765	1.234261	-0.20916
C	4.277131	1.33065	0.271673
N	5.203126	1.655324	-0.537964
O	6.426517	1.710136	0.060989
C	7.413527	2.054414	-0.877462
H	0.569384	-1.217509	-0.008035
H	0.651977	0.032636	-1.284721
H	0.319219	0.487158	0.40536
H	2.852125	-0.78475	-0.383851
H	2.264753	1.990661	0.328231
H	2.841671	1.516216	-1.28397
H	4.496597	1.101797	1.326182
H	8.361517	2.086862	-0.323841
H	7.218569	3.043354	-1.325793
H	7.486543	1.304856	-1.684064
