16

C	-0.425198	1.469005	-0.581189
N	-1.318014	0.656775	0.211074
C	-1.434844	-0.740222	-0.136956
C	-0.260214	-1.588843	0.243477
C	1.022705	-1.203998	0.360967
C	1.621436	0.099837	0.088254
C	1.034014	1.231021	-0.340331
H	-0.637518	2.523541	-0.336858
H	-0.606064	1.38292	-1.681013
H	-2.239934	1.079843	0.215136
H	-1.640184	-0.908809	-1.222322
H	-2.319129	-1.137404	0.388474
H	-0.488503	-2.644225	0.429589
H	1.738247	-1.978594	0.656783
H	2.709557	0.133279	0.210308
H	1.685091	2.085015	-0.558383
