13
-1422.17
C          0.98010        0.02805       -0.00659
C          2.48103       -0.00101       -0.00274
C          3.15244       -1.16231        0.00466
C          3.21121        1.22374       -0.00383
C          3.82644        2.25592       -0.00321
C          4.57445        3.48543       -0.00145
O          4.00772        4.56885       -0.00066
H          0.59769        1.05419        0.01985
H          0.58135       -0.49548        0.86889
H          0.58815       -0.44856       -0.91139
H          2.62936       -2.11363        0.00637
H          4.23809       -1.19685        0.00835
H          5.67035        3.37668       -0.00071
