13

O	1.29775	0.182468	0.641535
N	2.645114	0.100435	0.453967
C	3.219919	-1.124141	-0.046497
C	4.538587	-0.645193	-0.572497
C	4.602091	0.692491	-0.522868
C	3.342954	1.228394	0.024369
N	2.984805	2.449317	0.068251
H	0.897992	0.330112	-0.233984
H	2.595972	-1.565348	-0.852184
H	3.320395	-1.890922	0.742824
H	5.317746	-1.32358	-0.922981
H	5.421124	1.337483	-0.837938
H	2.056801	2.519112	0.497111
