13
-1423.74
C          0.92139        0.10618       -0.04283
C          2.42085       -0.00648       -0.00815
C          3.09750       -1.16633        0.05646
C          2.46097       -2.49862        0.06135
O          3.13089       -3.52093        0.14558
C          3.18209        1.20367       -0.02923
C          3.81923        2.22124       -0.04624
H          0.59370        1.11957        0.21566
H          0.44971       -0.56795        0.67928
H          0.54492       -0.12168       -1.04530
H          4.18298       -1.19186        0.09370
H          1.36413       -2.53073       -0.02217
H          4.38586        3.12312       -0.06144
