17

C	1.12625	-0.066436	0.030992
C	2.528596	-0.544162	-0.301411
C	2.56789	-1.522906	-1.455367
O	3.351384	0.560151	-0.689558
C	3.879682	1.327351	0.270695
N	3.677602	1.152913	1.508812
N	4.350313	1.93367	2.41044
H	1.150308	0.63817	0.873661
H	0.489003	-0.91845	0.311985
H	0.674991	0.432042	-0.841302
H	2.976157	-0.996704	0.600642
H	2.16193	-1.059039	-2.3675
H	1.968567	-2.415406	-1.223824
H	3.600385	-1.838642	-1.66117
H	4.520105	2.117932	-0.157971
H	3.799685	2.017488	3.258298
H	4.585431	2.867546	2.065088
