13
-1341.75
O          0.84457        0.08672        0.05080
C          2.28739       -0.00930        0.00853
C          3.08073        0.96500        0.89176
O          3.94405       -0.11078        1.35199
C          2.96196       -1.08370        0.89246
C          3.60713       -2.17261        0.19320
C          4.13246       -3.08518       -0.38299
H          0.53147       -0.66669       -0.48038
H          2.63445        0.00200       -1.03242
H          2.52980        1.41614        1.72328
H          3.63923        1.73488        0.35304
H          2.34405       -1.42057        1.73381
H          4.60512       -3.89827       -0.88748
