18
-1783.58
C          0.69518        0.72530        0.35238
C          2.16903        0.55126        0.52515
C          3.07674        1.46998        0.16389
C          4.49614        1.27343        0.34012
C          5.41483        2.15276       -0.08829
C          6.88654        1.96714        0.08149
N          7.50690        1.80901       -1.22431
H          0.19369        0.62617        1.31991
H          0.30502       -0.04648       -0.31816
H          0.43903        1.70382       -0.06569
H          2.48776       -0.39004        0.96717
H          2.75133        2.40588       -0.28645
H          4.81625        0.35835        0.83403
H          5.10734        3.06661       -0.59213
H          7.11449        1.09696        0.70686
H          7.30559        2.84773        0.57968
H          7.12153        0.97576       -1.66820
H          8.50028        1.62413       -1.09893
