15
-1503.72
C          2.36450       -1.06971        0.62964
C          2.18440        0.13728        0.08083
C          3.24184        1.20268        0.11339
N          2.96748        2.34409       -0.45753
N          4.45875        0.94110        0.73968
C          5.66673        1.52557        0.13604
C          5.12617        2.06430        1.41705
H          1.57942       -1.81784        0.58700
H          3.28724       -1.34507        1.13039
H          1.24978        0.37838       -0.41248
H          2.02740        2.33814       -0.85850
H          5.50837        2.08025       -0.77866
H          6.51383        0.85681        0.16637
H          5.59531        1.77342        2.34502
H          4.58701        3.00137        1.40949
