19

C	3.07097	-2.488069	-1.266517
C	2.952871	-1.687615	-0.002057
C	2.491932	-2.222079	1.135166
C	3.381716	-0.245454	-0.076498
C	4.880277	-0.053118	-0.353756
C	5.283143	1.387195	-0.346603
C	5.803853	2.051613	-1.379381
H	2.529841	-1.996595	-2.092625
H	2.669799	-3.50385	-1.146879
H	4.121493	-2.576307	-1.589812
H	2.178646	-3.268556	1.189367
H	2.406472	-1.628673	2.050281
H	3.121174	0.263675	0.866036
H	2.812484	0.264506	-0.874725
H	5.155166	-0.507528	-1.319739
H	5.447029	-0.597365	0.423244
H	5.112104	1.925895	0.595667
H	5.989426	1.559066	-2.339772
H	6.071126	3.108899	-1.304527
