15
-1510.24
C          0.93794        0.14356        0.18815
C          2.39827       -0.13257       -0.12818
O          2.54611       -1.50057       -0.57186
C          2.69299       -1.50305       -2.00674
C          3.15232       -0.14410       -2.38865
O          2.15539        0.88162       -2.40559
C          2.94332        0.72983       -1.21882
H          0.79032        1.18221        0.49891
H          0.59134       -0.51800        0.98869
H          0.29591       -0.05198       -0.67780
H          2.99883       -0.02108        0.78091
H          3.42000       -2.27428       -2.27532
H          1.72670       -1.75004       -2.45843
H          4.03579       -0.06904       -2.99707
H          3.66830        1.47544       -0.94048
