17
-1635.94
C          0.98882        0.00504        0.00449
C          2.50716        0.01575        0.04169
C          3.08516        1.13713        0.89018
C          4.48049        0.62260        1.17794
N          4.28575       -0.80569        1.42707
C          3.11518       -1.24250        0.65745
H          0.62442       -0.82876       -0.60399
H          0.60715        0.93479       -0.42964
H          0.56367       -0.09794        1.00834
H          2.88508        0.12433       -0.98442
H          2.52011        1.26238        1.82178
H          3.09623        2.09495        0.36101
H          5.13085        0.76711        0.30727
H          4.93526        1.12063        2.03864
H          5.11548       -1.33375        1.16072
H          3.40137       -1.95582       -0.12342
H          2.41785       -1.74743        1.33386
