15

C	0.988422	-0.090368	0.198385
C	2.452091	0.10117	-0.096658
C	3.225349	1.161762	0.706596
C	4.099817	-0.019838	1.12095
O	3.262935	-0.958451	0.451936
C	5.50221	-0.042785	0.555999
O	6.175055	0.935203	0.376188
H	0.622877	-1.018878	-0.265242
H	0.399871	0.749919	-0.20196
H	0.818776	-0.157593	1.283916
H	2.615547	0.179545	-1.188601
H	2.6484	1.613173	1.524685
H	3.748057	1.946086	0.142632
H	4.176193	-0.223502	2.208906
H	5.8652	-1.075182	0.309268
