13
-1264.5
C          1.08554       -0.00295        0.13181
C          2.58321        0.08558       -0.04520
C          3.30741       -1.21896       -0.06480
C          4.27413       -1.47181        0.82370
N          3.09027        1.26908       -0.20539
O          4.47054        1.22522       -0.43256
H          0.74597        0.78720        0.80784
H          0.79493       -0.97062        0.55055
H          0.60226        0.12650       -0.84091
H          2.97752       -1.95435       -0.78790
H          4.58165       -0.72825        1.55308
H          4.79076       -2.42573        0.82635
H          4.69471        2.16830       -0.53375
