16

C	0.989255	-0.097821	-0.136242
C	2.443699	0.150944	0.058706
C	3.158213	1.245331	-0.241681
C	4.596712	1.072745	0.16934
N	4.706098	-0.297609	0.680145
C	4.434611	-1.343448	-0.28226
C	3.36382	-0.875235	0.636374
H	0.822028	-0.952119	-0.813796
H	0.477622	0.780993	-0.552821
H	0.504302	-0.355528	0.820286
H	2.764593	2.144454	-0.722203
H	5.309974	1.229198	-0.659648
H	4.882803	1.785683	0.964579
H	4.957088	-2.288656	-0.095897
H	4.321285	-1.075057	-1.341611
H	3.030666	-1.491445	1.4816
