12

C	0.868868	-0.118216	-0.052337
N	2.304682	-0.028219	-0.051938
S	3.09258	1.455936	-0.368828
C	4.769697	0.666604	-0.159554
O	5.786579	1.291521	-0.280595
C	4.499854	-0.71458	0.145519
C	3.170964	-1.029142	0.190298
H	0.427869	0.532934	0.719612
H	0.580772	-1.157032	0.161162
H	0.453211	0.165516	-1.03269
H	5.313176	-1.416508	0.319282
H	2.75829	-2.017794	0.4057
