18
-1793.06
C          0.96041        0.00815       -0.02448
C          2.46196       -0.00174       -0.02405
C          3.17118        1.14592        0.08147
C          4.66098        1.20051        0.09598
N          5.33422       -0.00730       -0.37794
C          4.69292       -1.24789        0.04702
C          3.16377       -1.32091       -0.11124
H          0.56262       -1.01122        0.01894
H          0.57775        0.47519       -0.93661
H          0.56841        0.54841        0.84320
H          2.65179        2.09774        0.16843
H          4.97979        2.02923       -0.55006
H          4.99734        1.45305        1.10715
H          5.38441        0.02537       -1.39064
H          4.95883       -1.45599        1.08855
H          5.12850       -2.06506       -0.53726
H          2.76825       -1.98448        0.66730
H          2.91447       -1.77033       -1.07984
