16
-1604.52
C          1.04641        0.00888       -0.02726
N          2.49670       -0.02005        0.08628
C          3.02170        1.07883        0.90585
C          4.45812        0.67556        1.21498
C          4.29847       -0.81157        1.32629
O          5.12242       -1.55774        1.84022
C          2.98380       -1.25589        0.72018
H          0.69575       -0.82100       -0.65133
H          0.71971        0.93478       -0.51362
H          0.54847       -0.06020        0.94706
H          2.45677        1.18348        1.84166
H          2.98608        2.03489        0.37345
H          5.13641        0.90411        0.38899
H          4.81183        1.10850        2.15395
H          3.14978       -2.03942       -0.02308
H          2.33379       -1.60335        1.53156
