12
-1246.17
C          0.88114       -0.03170       -0.00389
N          2.31904        0.02719        0.01144
S          3.16018        1.49907       -0.02024
C          4.66405        0.64474       -0.01881
C          4.54293       -0.68633       -0.00388
C          3.12192       -1.09482        0.00770
O          2.77129       -2.26350        0.01080
H          0.43719        0.96696        0.03105
H          0.54294       -0.61382        0.85868
H          0.55925       -0.54728       -0.91375
H          5.61188        1.16678       -0.03002
H          5.33645       -1.41324       -0.00197
