12
-1276.23
C          2.12336        0.60355        0.84994
C          2.45865       -0.04290       -0.52806
C          3.40527        1.08813       -0.72995
N          3.67127        1.99045       -1.66281
O          3.68694        3.21240       -0.94136
C          3.21343        2.99103        0.33655
C          3.08763        1.65232        0.47765
H          2.42942       -0.00053        1.71083
H          1.10211        0.95715        1.01815
H          1.66658       -0.11427       -1.27903
H          2.95470       -1.01750       -0.45715
H          2.92206        3.87541        0.88168
