17

N	0.758137	1.115067	-0.068583
N	1.984894	1.084262	-0.619493
C	3.007456	1.323214	0.102367
C	4.391299	1.240094	-0.455714
C	5.148437	2.544454	-0.340579
C	5.851409	2.904408	0.937318
C	6.646736	2.553571	-0.287082
H	0.038495	1.297729	-0.756964
H	0.647835	1.671333	0.781958
H	2.903335	1.613556	1.167973
H	4.315873	0.924386	-1.508079
H	4.959169	0.454518	0.077709
H	4.67991	3.376349	-0.878689
H	5.825636	2.177166	1.755515
H	5.836669	3.946142	1.269008
H	7.182623	3.352187	-0.806865
H	7.160156	1.587226	-0.303711
