22

C	0.972944	-0.087096	0.054227
C	2.491016	0.024588	-0.048167
C	3.004489	-0.768813	-1.246667
C	3.024013	1.485753	-0.026432
C	2.650563	2.252945	-1.294846
C	2.474348	2.237494	1.195194
N	4.484812	1.402238	0.017442
H	0.573712	0.349878	0.980817
H	0.668416	-1.14485	0.035137
H	0.474135	0.407459	-0.795216
H	2.914021	-0.444778	0.8622
H	2.504607	-0.454984	-2.177536
H	2.800502	-1.843083	-1.115829
H	4.086048	-0.624038	-1.373351
H	3.098145	1.788053	-2.183957
H	3.02233	3.288775	-1.236287
H	1.560395	2.303351	-1.43202
H	2.677126	1.677937	2.124073
H	1.389827	2.414883	1.136477
H	2.964079	3.220338	1.280949
H	4.779299	0.983252	0.899294
H	4.886653	2.338457	0.001948
