17
-1561.49
C          1.35652        1.88508       -1.09021
C          2.58867        1.32452       -0.40796
O          3.65264        2.26151       -0.55599
C          4.84283        1.81078        0.10251
C          5.94887        2.85358       -0.09551
N          5.60198        4.12589        0.54631
H          0.51690        1.18866       -1.01273
H          1.55669        2.08206       -2.14855
H          1.06673        2.83922       -0.63762
H          2.87000        0.37243       -0.87088
H          2.38183        1.16021        0.65538
H          5.15923        0.85764       -0.33650
H          4.64260        1.66194        1.17050
H          6.09053        3.03376       -1.16660
H          6.89089        2.48604        0.32228
H          4.65503        4.36921        0.24258
H          6.21109        4.85846        0.18646
