13
-1344.79
O          1.05122       -0.06379       -0.22898
C          2.48081       -0.00057       -0.03798
C          3.29336       -0.70050       -1.09578
O          2.52322       -1.32946       -2.13968
C          3.24860        0.80631       -1.05427
C          4.41282        1.52301       -0.62061
C          5.38868        2.12533       -0.26275
H          0.60382        0.60813        0.31628
H          2.85585       -0.05175        0.97937
H          4.20659       -1.19622       -0.78465
H          1.57233       -1.24581       -1.92832
H          2.67374        1.29140       -1.83717
H          6.25650        2.65855        0.04841
