15
-1574.89
C          0.74067       -0.05247        0.00217
C          2.16487        0.43038       -0.02185
C          1.03686        1.40463       -0.22166
C          0.70001        2.45884        0.79650
C          0.32225        3.61158       -0.06946
C          0.42935        3.23135       -1.34362
O          0.84405        1.92844       -1.56457
H          0.32353       -0.35450        0.95489
H          0.38466       -0.62932       -0.84343
H          2.77233        0.18153       -0.88423
H          2.70914        0.45580        0.91410
H          1.56092        2.71059        1.42360
H         -0.14092        2.15949        1.42971
H          0.01604        4.58440        0.27873
H          0.23832        3.79903       -2.23783
