16

N	3.005401	-1.109127	-0.470678
C	2.438725	0.074203	0.14803
C	3.368311	1.251769	-2.5e-05
C	3.238007	2.205349	-1.15203
O	2.228899	1.958206	-2.064694
C	2.888475	2.660309	0.231004
O	3.717613	3.596066	0.825404
H	2.328495	-1.868551	-0.476902
H	3.803722	-1.441695	0.067517
H	2.188514	-0.044239	1.225787
H	1.497055	0.315755	-0.368804
H	4.401898	1.072619	0.320396
H	4.177699	2.607974	-1.555938
H	1.894015	2.808542	-2.368164
H	1.808597	2.774233	0.420813
H	3.820022	3.354536	1.751923
