20
-1914.62
C          3.10293       -0.99074       -0.55555
N          2.66521       -0.01714        0.43343
C          3.34852        1.27329        0.30789
C          2.64120        2.28250        1.21965
C          4.83881        1.20730        0.61149
C          5.27496        0.74038        1.97512
C          5.75171        1.56254       -0.31126
H          2.49466       -1.89614       -0.46308
H          4.14835       -1.28200       -0.41439
H          2.96981       -0.61241       -1.57436
H          2.79155       -0.38874        1.37163
H          3.20064        1.63683       -0.71849
H          2.64290        1.96564        2.26849
H          1.59559        2.41032        0.91647
H          3.12268        3.26518        1.16354
H          4.91576       -0.27362        2.17462
H          4.89460        1.40750        2.75442
H          6.36628        0.72058        2.06976
H          5.45798        1.90196       -1.30017
H          6.81703        1.52108       -0.10574
