12
-1264.07
C          1.00260       -0.00882       -0.08290
C          2.51129        0.01768        0.03523
C          3.11959       -1.16489       -0.61021
N          3.91700       -0.88929       -1.58161
O          3.94748        0.53329       -1.71967
C          3.12204        1.10776       -0.78015
O          2.92398        2.30550       -0.64933
H          0.56299        0.89052        0.36062
H          0.58556       -0.88312        0.42773
H          0.68023       -0.05174       -1.12971
H          2.85031        0.07448        1.07265
H          2.90414       -2.18418       -0.26072
