18
-1732.6
C          0.99820        0.01487       -0.01082
C          2.51848       -0.00802        0.03538
C          3.10480        1.08947        0.90906
N          4.47683        0.62760        1.15208
C          4.34187       -0.81796        1.41068
C          3.08407       -1.28224        0.66083
O          3.38513       -2.23502       -0.35135
H          0.61867       -0.80681       -0.62673
H          0.63984        0.95577       -0.44109
H          0.56474       -0.08450        0.98991
H          2.89045        0.10262       -0.99293
H          2.56972        1.18995        1.86097
H          3.09736        2.06317        0.40922
H          5.01968        0.75621        0.29755
H          5.24585       -1.35444        1.10389
H          4.20953       -0.96720        2.48873
H          2.37916       -1.74321        1.36150
H          4.06439       -1.85093       -0.93168
