18
-1757.72
C          1.17171       -0.13092        0.06328
C          2.66933       -0.36707       -0.06547
N          3.39301        0.67042        0.66641
C          4.84795        0.51290        0.57885
C          5.49924        1.80967        1.06100
C          5.31260       -0.61655        1.40484
C          5.68963       -1.53811        2.07899
H          0.62068       -0.89205       -0.49849
H          0.88924        0.85044       -0.33273
H          0.84990       -0.18530        1.10886
H          2.94082       -0.34029       -1.12688
H          2.90244       -1.36530        0.32090
H          3.11753        0.66124        1.64782
H          5.14596        0.35878       -0.46552
H          5.24642        2.02971        2.10535
H          5.18054        2.66080        0.44860
H          6.59161        1.74404        0.99559
H          6.02268       -2.35439        2.67659
