11

O	0.898334	0.01618	-0.411516
C	2.045797	0.043934	-0.045616
C	2.877659	1.227817	-0.051309
C	3.604562	2.202809	-0.041677
C	4.486047	3.341425	-0.023431
C	4.627895	4.204931	-1.211119
O	3.902026	4.627594	-0.090935
H	2.563918	-0.870551	0.335149
H	5.341936	3.256653	0.660725
H	4.040657	3.973061	-2.108606
H	5.592718	4.699876	-1.382574
