14
-1426.08
C          0.98282       -0.12121       -0.08078
C          2.48200        0.00000        0.00000
C          3.18500       -1.21763        0.00000
N          3.76051       -2.21444        0.00000
C          3.15304        1.17963        0.03117
N          2.53574        2.40326        0.03470
N          4.51983        1.27958        0.06860
H          0.46377        0.83527       -0.18729
H          0.59314       -0.60999        0.82010
H          0.69811       -0.72980       -0.94817
H          1.59787        2.39626        0.42435
H          3.11308        3.08300        0.52334
H          5.02147        0.43101       -0.18781
H          4.84037        2.06615       -0.49099
