13

O	0.988977	0.036121	0.100064
C	2.376704	-0.049682	0.059422
C	2.935087	-1.246784	-0.652316
C	3.955148	-0.916869	-1.455346
C	4.21442	0.563006	-1.484025
C	3.003747	1.096883	-0.739764
O	2.513802	2.192442	-0.806285
H	0.779389	0.979909	0.040305
H	2.811925	-0.002933	1.087009
H	2.564857	-2.258641	-0.476601
H	4.548258	-1.630761	-2.031341
H	5.135974	0.851224	-0.944182
H	4.288552	1.007195	-2.489619
