12

O	1.061594	-0.048552	-0.080319
C	2.433756	0.005278	0.02093
C	3.211265	-0.749082	-0.976046
C	3.215458	0.767541	-1.046058
C	4.422215	1.512415	-0.645177
O	4.762159	2.573857	-1.099167
H	0.701193	0.775404	0.265206
H	2.840304	0.052591	1.042653
H	2.640492	-1.256932	-1.756942
H	4.129622	-1.252123	-0.6606
H	2.619556	1.236512	-1.83426
H	5.028937	1.006111	0.157178
