14

C	0.939285	0.05904	0.259025
C	2.388911	-0.000771	-0.159501
O	2.575518	1.050823	-1.113601
N	3.799058	1.149934	-1.698239
C	4.452675	0.052884	-1.854779
C	3.895417	-1.259276	-1.560983
C	2.816926	-1.304524	-0.767788
H	0.696329	1.057433	0.647613
H	0.74124	-0.684199	1.045551
H	0.284518	-0.149109	-0.599881
H	3.040824	0.224653	0.714301
H	5.424279	0.166745	-2.344021
H	4.317899	-2.142741	-2.044783
H	2.27556	-2.228972	-0.546954
