17
-1754.73
C          0.94984        0.00519        0.01781
C          2.47019        0.00944        0.01762
C          3.02739        1.43282        0.00000
C          4.47139        1.43282        0.00000
C          5.66155        1.43282        0.00000
C          7.06755        1.43282        0.00000
C          7.76943        2.57083        0.00003
H          0.57365       -1.02262        0.03050
H          0.55556        0.50000       -0.87588
H          0.55573        0.52186        0.89912
H          2.83122       -0.54667       -0.85608
H          2.83138       -0.52494        0.90472
H          2.65574        1.98261        0.87281
H          2.65572        1.96084       -0.88614
H          7.58179        0.47645       -0.00002
H          7.28297        3.54157        0.00005
H          8.85409        2.55178        0.00003
