15
-1447.75
C          1.14494       -0.24973       -0.02265
C          2.65895       -0.18680       -0.08053
O          3.05739        1.17584        0.12841
C          4.38996        1.41784        0.09969
N          5.28425        0.51226       -0.10776
N          6.56246        1.06423       -0.07951
C          7.45287        0.15967       -0.31157
H          0.79107       -1.27439       -0.16710
H          0.70292        0.38895       -0.79478
H          0.77977        0.11821        0.94208
H          3.00479       -0.52815       -1.06248
H          3.08477       -0.82028        0.70540
H          4.59351        2.48635        0.27523
H          8.51949        0.43131       -0.32423
H          7.20251       -0.89761       -0.50372
