14
-1415.29
C          1.00000        0.00000        0.00000
C          2.44400        0.00000        0.00000
C          3.63416        0.00000        0.00000
C          5.07374       -0.03236       -0.00079
C          5.79409       -1.34059       -0.00575
N          5.58485        1.15690        0.00131
O          6.98506        1.09627       -0.00104
H          0.60595        1.02086        0.01168
H          0.60596       -0.52056        0.87825
H          0.60596       -0.50032       -0.88993
H          5.08883       -2.17631        0.00209
H          6.43357       -1.40969        0.87867
H          6.41635       -1.41160       -0.90223
H          7.23325        2.04049        0.00087
