15
-1506.88
C          1.00000        0.00000        0.00000
C          2.44400        0.00000        0.00000
C          3.63416        0.00000        0.00000
C          5.07816        0.00000        0.00000
N          5.56267        1.31820        0.33930
C          6.87397        1.62974        0.42281
N          7.34395        2.81440        0.57150
H          0.60601        1.02088        0.01215
H          0.60593       -0.52091        0.87802
H          0.60592       -0.49988       -0.89016
H          5.45590       -0.28621       -0.98789
H          5.45942       -0.73008        0.72244
H          4.88517        2.06779        0.28636
H          7.55670        0.76637        0.35512
H          6.57493        3.48487        0.62732
