15

C	-0.785979	-0.991546	-0.197731
C	-1.175769	0.408295	0.272575
C	-0.005776	1.259973	-0.214044
C	1.230525	0.393349	0.072982
C	0.725669	-1.071263	0.072329
H	-1.355423	-1.79495	0.293812
H	-0.982383	-1.076095	-1.28025
H	-1.228586	0.434966	1.375723
H	-2.152906	0.743218	-0.108563
H	-0.108429	1.427419	-1.299816
H	0.043656	2.25253	0.258994
H	2.032855	0.563528	-0.661173
H	1.652991	0.650479	1.057269
H	1.244048	-1.694467	-0.67225
H	0.913678	-1.540886	1.050892
