18
-1748.27
C          2.12832       -0.05267       -1.67533
C          2.27458        0.13361       -0.17266
N          2.86214        1.42707        0.17093
C          1.94418        2.55191        0.28431
C          4.24776        1.53259        0.18540
C          4.83752        2.88658        0.48644
O          4.98971        0.57352       -0.03119
H          1.70030       -1.03571       -1.89569
H          3.09764        0.01864       -2.17928
H          1.47119        0.70916       -2.10647
H          2.90640       -0.66768        0.22751
H          1.29915        0.04793        0.31959
H          1.16240        2.29780        1.00691
H          1.48965        2.73645       -0.69357
H          2.43511        3.46683        0.61823
H          4.54520        3.60707       -0.28207
H          5.92982        2.81354        0.48571
H          4.52227        3.22491        1.47714
