17

C	3.000081	-1.126301	-0.408991
C	2.340893	0.088168	0.217996
O	1.956812	-0.16643	1.559043
C	3.265885	1.289794	0.214555
O	4.358841	1.119734	1.057559
C	3.518757	2.046762	-1.040219
C	2.704478	2.673212	0.06541
H	3.219126	-0.951225	-1.471928
H	2.35253	-2.012915	-0.327449
H	3.959455	-1.320411	0.097398
H	1.426835	0.35065	-0.34544
H	2.374242	-0.986438	1.838712
H	3.973771	0.987427	1.934512
H	3.005064	1.730005	-1.952692
H	4.538735	2.409401	-1.185554
H	3.18667	3.455708	0.65584
H	1.627246	2.79371	-0.080442
