15
-1549.51
C          1.00000        0.00000        0.00000
C          2.44400        0.00000        0.00000
C          3.63416        0.00000        0.00000
C          5.06205        0.06225        0.05502
O          5.71798       -0.52962       -1.07740
C          5.79209        0.89670       -0.96695
C          7.14771        1.43279       -0.68458
H          0.60598        1.02087        0.01163
H          0.60591       -0.52052        0.87825
H          0.60597       -0.50031       -0.88994
H          5.52097       -0.08168        1.02535
H          5.23526        1.48835       -1.67980
H          7.68785        0.82742        0.05131
H          7.07154        2.45320       -0.29267
H          7.74181        1.46503       -1.60274
