18
-1721.
C          0.98154        0.14736       -0.18287
C          2.47261        0.03320        0.00816
N          2.91437       -0.07293        1.42442
C          3.27426       -0.70706       -1.03925
C          3.41594        0.78448       -0.93377
C          2.93464        1.67027       -2.03486
O          4.62450        1.25585       -0.30603
H          0.68574        0.09954       -1.23561
H          0.61597        1.09267        0.23211
H          0.46954       -0.67348        0.33191
H          3.79802       -0.58340        1.47343
H          2.25511       -0.64442        1.95443
H          2.75424       -1.11211       -1.90029
H          4.12081       -1.31168       -0.73561
H          2.09692        1.23855       -2.58982
H          3.74263        1.85078       -2.75125
H          2.61705        2.63644       -1.63082
H          4.43744        1.40120        0.64177
