20
-1867.98
C          0.96321       -0.82093        0.27250
C          2.41062       -0.39371       -0.00031
C          3.17752       -1.56008       -0.62478
C          2.45103        0.87307       -0.87729
O          1.74896        1.92958       -0.20639
C          3.87879        1.37659       -1.17754
N          3.81532        2.69325       -1.83321
H          0.40784       -0.03558        0.79554
H          0.93449       -1.71654        0.90285
H          0.43498       -1.04734       -0.66027
H          2.86331       -0.16163        0.97238
H          2.80319       -1.78875       -1.62860
H          3.07772       -2.46380       -0.01340
H          4.24691       -1.33992       -0.69974
H          1.92490        0.69052       -1.82290
H          2.13004        2.75194       -0.58162
H          4.42161        0.67583       -1.81847
H          4.43528        1.49632       -0.24171
H          3.39192        2.58728       -2.75645
H          4.76710        3.02149       -2.00173
