14
-1417.6
O          1.26609        0.11839        0.70175
C          2.32804        0.06681        0.08236
C          3.07756       -1.25157       -0.09280
N          4.04465       -1.27605       -1.20555
C          4.88121       -0.08223       -1.13836
C          3.98879        1.13728       -1.31300
O          2.93825        1.20599       -0.33369
H          2.33801       -2.03841       -0.27292
H          3.59227       -1.46553        0.85063
H          4.62175       -2.11242       -1.12228
H          5.41086       -0.04384       -0.17860
H          5.63092       -0.11087       -1.93556
H          4.58772        2.04764       -1.20878
H          3.52618        1.15939       -2.30653
