12
-1278.99
N          0.98209       -0.06745        0.00610
C          2.32844       -0.02631       -0.18125
N          2.99199       -1.13125       -0.28143
C          3.03615        1.27573       -0.27097
C          4.36877        1.31801       -0.40433
C          5.06771        2.54692       -0.49565
N          5.62645        3.56247       -0.56498
H          0.53835        0.75971        0.38946
H          0.59636       -0.92666        0.37717
H          2.34952       -1.92444       -0.23451
H          2.43307        2.17529       -0.23263
H          4.95943        0.40879       -0.44792
