16
-1616.93
C          1.00000        0.00000        0.00000
C          2.44400        0.00000        0.00000
C          3.63416        0.00000        0.00000
C          5.07816        0.00000        0.00000
C          5.45930        1.44749        0.08061
C          5.62976        2.13021        1.41465
N          6.78843        1.80571        0.58841
H          0.60609        1.02091        0.01193
H          0.60595       -0.52069        0.87816
H          0.60591       -0.50006       -0.89005
H          5.47459       -0.43814       -0.92172
H          5.47466       -0.57478        0.84402
H          5.11199        2.02825       -0.76726
H          5.51299        1.54564        2.31884
H          5.36477        3.17651        1.49755
H          7.14280        2.63993        0.11620
