21
-1983.22
C          1.76962       -0.92644       -0.40434
O          3.05716       -0.33999       -0.26497
C          2.98190        1.08498       -0.18546
C          4.40065        1.62891       -0.04279
C          4.46474        3.15300        0.13979
C          5.90821        3.58240        0.41416
C          3.92436        3.90914       -1.07493
H          1.89106       -2.01008       -0.47112
H          1.28366       -0.57171       -1.31786
H          1.14895       -0.69631        0.46706
H          2.37672        1.36957        0.68317
H          2.50781        1.46630       -1.09603
H          4.99178        1.32363       -0.91611
H          4.87537        1.13581        0.81591
H          3.86072        3.42991        1.01303
H          6.56479        3.33062       -0.42624
H          6.29856        3.08722        1.30975
H          5.96921        4.66393        0.57923
H          4.45003        3.61684       -1.99048
H          4.04640        4.99001       -0.94608
H          2.85649        3.71979       -1.21901
