14
-1361.56
C          0.85396       -1.10025        0.54951
C         -0.40413       -1.49863       -0.19293
C         -1.48944       -0.45465       -0.26170
N         -1.42513        0.81941       -0.01271
O         -0.18380        1.27455        0.47253
C          0.88092        1.05063       -0.45367
O          1.62321       -0.13638       -0.16630
H          1.49344       -1.98188        0.66559
H          0.64092       -0.73423        1.56094
H         -0.84775       -2.37874        0.28624
H         -0.16803       -1.77256       -1.22781
H         -2.46259       -0.82110       -0.63372
H          1.57218        1.89641       -0.38524
H          0.51661        1.01153       -1.48804
