19
-1842.1
C          1.09281       -0.21123       -0.21960
C          2.59860       -0.16665       -0.41878
C          3.24870        0.90922        0.45017
C          4.73115        0.96586        0.22864
C          5.64456        1.39431        1.34813
C          5.63545       -0.03740        0.89298
O          6.77128       -0.46567        0.13057
H          0.65125       -0.99687       -0.84087
H          0.63187        0.74178       -0.49842
H          0.84070       -0.42268        0.82475
H          2.82005        0.02170       -1.47557
H          3.02396       -1.14770       -0.17660
H          3.02216        0.71560        1.50651
H          2.82137        1.89019        0.20812
H          4.97592        1.29541       -0.77469
H          5.21510        1.61119        2.31971
H          6.50238        2.00868        1.10394
H          5.18668       -0.76862        1.55829
H          7.10496        0.23221       -0.45981
