20

C	2.148348	-0.290672	-1.518662
N	2.339151	0.1453	-0.156898
C	3.037801	1.400732	-0.01406
C	2.225328	2.619829	-0.455494
C	2.945686	3.80988	0.190989
C	3.665281	3.23634	1.437182
C	3.341489	1.737783	1.44364
H	1.679691	-1.286431	-1.532167
H	3.083335	-0.344795	-2.120352
H	1.463453	0.391992	-2.047231
H	2.828718	-0.57339	0.370377
H	3.999217	1.408885	-0.584285
H	1.20732	2.499501	-0.047659
H	2.132465	2.7181	-1.548002
H	3.67863	4.243272	-0.508091
H	2.245599	4.620034	0.443957
H	4.752189	3.396511	1.360975
H	3.345815	3.725788	2.369356
H	4.147563	1.11982	1.871649
H	2.42646	1.533783	2.025325
