15

C	1.017886	-0.041015	0.025976
C	2.521743	0.007975	0.113762
C	3.119265	1.22304	0.818092
C	4.420664	0.670857	1.367626
O	5.374305	1.280901	1.765424
C	4.284816	-0.845575	1.294388
O	2.972328	-1.098813	0.886281
H	0.693787	-0.987506	-0.430096
H	0.635201	0.790115	-0.584367
H	0.576738	0.024188	1.032228
H	2.955739	-0.061999	-0.907307
H	2.49117	1.523193	1.675964
H	3.288653	2.108391	0.190381
H	5.041264	-1.226348	0.57536
H	4.484941	-1.314913	2.270228
