20

C	0.971664	-0.098916	0.011768
C	2.495067	-0.000355	-0.023765
C	3.032824	-0.800281	-1.208508
C	2.987905	1.461565	-0.031598
C	2.450184	2.261466	1.153177
C	4.511307	1.56014	-0.067181
H	0.540102	0.342138	0.921471
H	0.645995	-1.149822	-0.027089
H	0.525062	0.417762	-0.855123
H	2.886524	-0.464361	0.903409
H	2.729178	-0.3371	-2.163019
H	2.635328	-1.826443	-1.200713
H	4.129612	-0.874917	-1.206086
H	2.596413	1.925585	-0.958751
H	2.753909	1.7983	2.107669
H	1.353392	2.336062	1.150825
H	2.847638	3.287642	1.14536
H	4.957942	1.04339	0.799652
H	4.836971	2.611046	-0.02825
H	4.942832	1.119158	-0.976937
