12

C	3.078746	-1.131837	0.543894
O	2.338203	0.036814	0.305214
C	3.042736	1.165096	0.152957
C	2.536269	2.412011	-0.090532
O	3.547026	3.284513	-0.181464
N	4.72978	2.655902	-0.004616
C	4.450108	1.391801	0.196658
H	2.357695	-1.952912	0.641605
H	3.665103	-1.059477	1.477557
H	3.765774	-1.357198	-0.291797
H	1.528134	2.797323	-0.216153
H	5.261465	0.685074	0.366718
