18
-1751.53
C          0.93424       -0.08615       -0.06757
C          2.46663       -0.03461        0.06401
C          2.87513       -0.80453        1.33372
C          3.10027       -0.72872       -1.15439
C          2.89753        1.42586        0.05954
C          3.57100        2.08486        1.01189
H          0.59141        0.41464       -0.98074
H          0.44541        0.40385        0.78284
H          0.57504       -1.12096       -0.10593
H          2.43063       -0.36234        2.23289
H          3.96344       -0.81708        1.46376
H          2.54119       -1.84762        1.28493
H          2.80704       -0.24267       -2.09236
H          2.79020       -1.77808       -1.21728
H          4.19501       -0.70860       -1.09839
H          2.61856        1.99179       -0.83088
H          3.89479        1.61602        1.93434
H          3.81814        3.13481        0.88328
