14
-1469.35
C          1.12416       -0.06241        0.62234
C          2.52000        0.00000        0.00000
C          2.47775       -0.54782       -1.43200
C          3.85562       -0.77204       -2.00498
O          4.87154       -0.86924       -1.32410
C          3.00202        1.36117        0.00000
N          3.38623        2.44616        0.00000
H          1.13416        0.32155        1.64884
H          0.75813       -1.09428        0.65486
H          0.40252        0.53483        0.05262
H          3.18556       -0.62134        0.61198
H          1.94955        0.14255       -2.10093
H          1.96034       -1.51317       -1.46908
H          3.89443       -0.91912       -3.09805
