17
-1646.55
C          3.17801       -1.23532        0.67427
O          2.42606       -0.12750        0.19408
C          3.09307        1.04847        0.00088
C          4.39150        1.32661        0.18983
C          4.98502        2.68794       -0.06766
C          6.04368        2.65394       -1.17010
O          5.44964        2.43254       -2.44498
H          2.49769       -2.08603        0.77473
H          3.60167       -1.02267        1.66119
H          3.96329       -1.51259       -0.03650
H          2.38647        1.79267       -0.35564
H          5.07928        0.56942        0.55393
H          5.44379        3.04067        0.86306
H          4.19818        3.40171       -0.33968
H          6.79318        1.87547       -0.99244
H          6.56168        3.61710       -1.21472
H          4.93158        1.61020       -2.38490
