16

C	1.170738	-0.361653	0.370554
C	2.628164	-0.282664	-0.007795
O	3.127853	0.947489	0.485729
N	4.445823	1.085615	0.195205
C	4.961555	2.170761	0.605899
C	6.412621	2.398891	0.32365
O	7.00705	1.348916	-0.362564
H	0.734398	-1.303443	0.007113
H	0.606998	0.474047	-0.069557
H	1.049265	-0.320685	1.463131
H	2.762451	-0.323451	-1.103746
H	3.203566	-1.11758	0.430529
H	4.372796	2.925421	1.148679
H	6.924354	2.583019	1.291598
H	6.503324	3.350565	-0.242008
H	6.305274	0.697983	-0.517365
