17

C	3.593996	-1.068277	0.878181
O	2.699546	-0.20953	0.225243
C	3.128109	1.024143	-0.08586
C	4.338634	1.556932	0.138167
C	4.749319	2.959949	-0.213933
C	3.664667	3.813774	-0.853155
O	5.298259	3.602083	0.92291
H	3.062096	-2.011964	1.054128
H	3.923153	-0.651812	1.847055
H	4.489653	-1.266593	0.262374
H	2.330057	1.584025	-0.581864
H	5.121214	0.975794	0.634119
H	5.595569	2.897807	-0.922262
H	2.791642	3.906702	-0.18654
H	3.323128	3.397332	-1.812574
H	4.061059	4.822511	-1.033688
H	4.632929	3.551593	1.619251
