14

C	0.911865	0.028772	-0.05124
C	2.381821	-0.251789	0.035781
C	2.88313	-1.480472	0.2089
C	3.277326	0.963959	-0.029165
C	3.231428	1.669955	1.307501
O	2.630556	2.686928	1.522039
H	0.607477	0.781943	0.694506
H	0.311027	-0.87835	0.100531
H	0.658134	0.45088	-1.038378
H	2.229681	-2.353327	0.292026
H	3.961136	-1.658121	0.263516
H	2.937218	1.670836	-0.802053
H	4.316824	0.663602	-0.235729
H	3.777117	1.133202	2.128523
