9
-1033.09
O          0.95450       -0.03304        0.00420
C          2.17231       -0.06444       -0.00034
C          3.02100        1.13953       -0.00110
C          4.29427        0.74680       -0.00656
C          4.19309       -0.70214       -0.00904
N          2.98980       -1.16568       -0.00552
H          2.61881        2.13647        0.00234
H          5.19569        1.33036       -0.00874
H          5.10625       -1.31413       -0.01361
