21
-1983.72
C          1.33407       -1.24390       -0.00806
C          0.77090        0.17081       -0.06756
C          1.23196        1.02642        1.12277
C          0.81546        2.49974        0.95815
C         -0.69109        2.72571        0.92270
O          0.67499        0.45481        2.31201
C          1.34083        0.85195        3.50280
H          0.99652       -1.82052       -0.87568
H          1.00171       -1.76902        0.89362
H          2.42901       -1.23075       -0.01502
H         -0.32202        0.09162       -0.07785
H          1.08361        0.63717       -1.00819
H          2.32769        0.97684        1.17634
H          1.26069        2.90526        0.04129
H          1.22359        3.08829        1.78770
H         -1.13862        2.28321        0.02936
H         -0.90638        3.79922        0.90117
H         -1.18101        2.30260        1.80401
H          0.91715        0.28365        4.33510
H          1.18523        1.91483        3.70254
H          2.41094        0.62938        3.44269
