14

C	0.919567	0.00496	0.004708
C	2.413376	0.022106	-0.025896
C	3.221909	1.139199	-0.131666
N	4.517287	0.706972	-0.118992
O	5.596661	1.518211	-0.259944
C	4.582818	-0.649862	-0.023849
C	3.281655	-1.106319	0.041994
H	0.505389	1.021222	-0.062619
H	0.538173	-0.44775	0.934531
H	0.503947	-0.578764	-0.832757
H	2.989	2.197417	-0.22617
H	5.844643	1.781641	0.637802
H	5.54241	-1.160927	-0.018586
H	2.980654	-2.149394	0.127003
