12
-1225.47
C          1.04765        0.00083       -0.06931
C          2.53513        0.02156        0.00395
N          3.32385       -0.67115       -1.00622
C          3.35008        0.80172       -1.00325
C          4.51610        1.50921       -0.54401
N          5.43727        2.10977       -0.17656
H          0.63060        0.78413        0.57140
H          0.66458       -0.96314        0.28027
H          0.67921        0.16553       -1.08745
H          2.89839       -0.06679        1.02240
H          2.74019       -1.01679       -1.76926
H          2.82826        1.27073       -1.83023
