21
-1990.14
C          2.98791       -1.00290       -0.86415
C          2.48448       -0.08492        0.24133
C          3.01694        1.35572        0.13559
C          2.35772        2.23054        1.20788
C          4.55262        1.47045        0.18878
C          5.20623        0.92049        1.45222
O          6.61576        1.10613        1.37832
H          2.50401       -1.98191       -0.78730
H          4.06742       -1.16231       -0.79566
H          2.75881       -0.58948       -1.85163
H          2.73668       -0.51996        1.21501
H          1.38876       -0.06273        0.18986
H          2.70330        1.75600       -0.83787
H          2.54994        1.85122        2.21608
H          1.27176        2.25837        1.06562
H          2.72524        3.26044        1.15241
H          4.83964        2.52463        0.07693
H          4.99132        0.97394       -0.68589
H          5.01361       -0.14801        1.58126
H          4.85350        1.44578        2.34437
H          6.93522        0.61031        0.60514
