13

C	2.235507	-0.849724	-0.205864
O	3.429934	-0.13527	-0.234586
C	3.263262	1.235322	-0.009453
C	4.60121	1.897835	0.018543
C	4.906776	3.023113	-0.625238
H	2.470039	-1.909636	-0.379932
H	1.527506	-0.5154	-0.991862
H	1.71828	-0.760231	0.771811
H	2.751247	1.402078	0.966228
H	2.616474	1.698285	-0.784863
H	5.350038	1.395677	0.642667
H	4.176824	3.533762	-1.262745
H	5.895062	3.482049	-0.537996
