15

N	2.907286	-1.015698	-0.602304
C	2.372541	0.067583	0.203569
C	3.309271	1.246015	0.232765
C	3.481923	2.106188	-0.996254
C	2.796767	2.655432	0.215236
O	3.352689	3.654397	0.996623
H	2.266517	-1.806735	-0.605777
H	3.775342	-1.358153	-0.19364
H	2.130447	-0.21251	1.251847
H	1.418759	0.389884	-0.249969
H	4.2173	1.101153	0.83316
H	2.891583	1.856501	-1.88261
H	4.488894	2.471878	-1.224174
H	1.709389	2.782447	0.161924
H	4.294062	3.706307	0.806045
