16
-1681.39
C          2.28884       -0.55070       -1.40249
C          2.46214        0.00252        0.00362
C          3.00512        1.39389        0.00420
C          2.27876        2.56802       -0.01232
N          3.15445        3.62158       -0.00547
C          4.43737        3.14475        0.01623
C          4.37801        1.76966        0.02324
H          1.89047       -1.56938       -1.36322
H          3.24426       -0.57912       -1.93712
H          1.59556        0.06374       -1.98673
H          3.13413       -0.65307        0.57068
H          1.49564       -0.01518        0.52184
H          1.21046        2.74261       -0.02891
H          2.89344        4.59898       -0.01485
H          5.28058        3.82185        0.02490
H          5.23142        1.10365        0.03939
