19
-1790.48
C          2.70790       -1.21364       -0.45083
C          2.22541        0.05642        0.23548
C          3.28735        1.13878        0.26241
N          4.47789        0.87217        1.10760
C          3.50487        1.95196       -0.99055
C          2.81661        2.58506        0.18204
N          3.53411        3.60819        0.95820
H          1.90420       -1.95628       -0.48185
H          3.55582       -1.65743        0.08082
H          3.02500       -1.00995       -1.47884
H          1.91936       -0.17698        1.26247
H          1.32802        0.41287       -0.28433
H          4.18831        0.57056        2.03733
H          5.02253        0.10493        0.71503
H          2.90290        1.73583       -1.86529
H          4.51038        2.27648       -1.23252
H          1.75177        2.77284        0.07122
H          4.48036        3.24822        1.12308
H          3.13086        3.67096        1.89206
