18

C	2.868077	-1.376733	-0.379036
C	2.324885	-0.108059	0.244037
O	1.946239	-0.424543	1.568064
C	3.337304	1.029727	0.264292
N	4.547159	0.806306	0.998446
C	3.433219	1.932327	-0.923985
C	2.778948	2.429314	0.334492
H	3.150443	-1.207475	-1.428198
H	2.113126	-2.174784	-0.335391
H	3.75356	-1.720705	0.17638
H	1.443639	0.223717	-0.344698
H	1.606632	0.38389	1.968413
H	4.309667	0.405231	1.905566
H	5.129186	0.120339	0.520651
H	2.798541	1.720727	-1.789504
H	4.425175	2.321496	-1.164416
H	3.337894	3.142796	0.94354
H	1.692345	2.56566	0.329127
