17

C	0.986445	0.066829	0.05589
C	2.482554	-0.084165	0.03601
O	3.174359	0.923203	0.775839
C	4.118378	-0.021109	1.266271
C	3.218643	-1.197366	0.830657
C	2.43286	-1.819317	1.960544
O	3.789016	-2.237669	0.100193
H	0.50936	-0.770082	-0.476433
H	0.694588	1.001926	-0.445726
H	0.601955	0.101069	1.084638
H	2.838555	-0.105375	-1.01917
H	5.07723	0.003854	0.709337
H	4.328347	0.102641	2.342389
H	1.990476	-1.048528	2.606391
H	3.103818	-2.446294	2.566522
H	1.630096	-2.457907	1.56337
H	4.26959	-1.8584	-0.643982
