14
-1409.41
C          3.51855       -1.11996       -0.28651
O          2.56447       -0.08898       -0.05822
C          3.03969        1.19033        0.04132
C          4.30208        1.63489       -0.04768
C          4.63940        3.03414        0.08062
C          5.89222        3.49422       -0.00992
H          2.97996       -2.07035       -0.34503
H          4.22993       -1.18504        0.54316
H          4.03961       -0.96809       -1.23741
H          2.19794        1.85374        0.21476
H          5.12462        0.94829       -0.22218
H          3.82898        3.73855        0.25883
H          6.73950        2.83916       -0.18703
H          6.09735        4.55550        0.09301
