18
-1726.38
C          0.88379        2.32617       -0.54444
N          1.80787        1.33217       -0.01084
C          3.19047        1.80835       -0.10557
C          4.17081        0.74888        0.41044
C          4.12312       -0.57063       -0.35774
C          4.59961       -0.45701       -1.78516
O          5.21071        0.50318       -2.24341
H         -0.13975        1.94516       -0.47612
H          1.08859        2.53129       -1.60025
H          0.93351        3.26339        0.01936
H          1.57820        1.15945        0.96797
H          3.31194        2.71751        0.49607
H          3.43144        2.06754       -1.14215
H          3.95889        0.54662        1.46795
H          5.18581        1.16309        0.36997
H          3.10929       -0.98321       -0.37244
H          4.76834       -1.30641        0.13529
H          4.41666       -1.34955       -2.40806
