15
-1521.36
C          3.13371       -1.16670       -0.44421
C          2.46997        0.06187        0.15727
C          3.41910        1.21757        0.23748
N          3.62711        2.08280       -0.91635
C          2.89588        2.63776        0.23506
C          3.52234        3.60194        1.10091
N          3.99969        4.37564        1.82075
H          2.42911       -2.00340       -0.47669
H          4.00245       -1.47315        0.14779
H          3.47710       -0.96781       -1.46472
H          2.11965       -0.17677        1.16799
H          1.58340        0.31868       -0.43501
H          4.30165        0.99449        0.82899
H          2.98241        1.85988       -1.67601
H          1.83432        2.79079        0.07374
