16
-1618.54
C          0.66978       -0.79691        1.07815
C          1.96494       -0.84356        0.31449
C          2.42488       -1.98446       -0.22626
C          2.73605        0.45435        0.22338
C          1.97863        1.51472       -0.56418
N          1.76370        1.22845       -1.88237
O          1.59948        2.57581       -0.07975
H          0.84175       -0.43402        2.09654
H          0.20210       -1.78456        1.15179
H         -0.04448       -0.12950        0.58561
H          1.87358       -2.91680       -0.13953
H          3.37194       -2.02487       -0.75661
H          3.71206        0.31229       -0.25625
H          2.93098        0.83938        1.23106
H          1.83287        0.27827       -2.22135
H          1.18815        1.87980       -2.39957
