13
-1385.72
O          1.08444        0.36762       -0.87154
C          2.03987        0.27879       -0.10205
C          3.19823        1.26719       -0.02654
O          3.66068        1.34172        1.33592
C          3.52592        2.69854        1.79930
C          2.98876        3.46429        0.65252
C          2.80178        2.65224       -0.38470
H          2.15257       -0.61282        0.53847
H          4.01832        0.89440       -0.64697
H          4.50938        3.06340        2.10888
H          2.84437        2.71268        2.65413
H          2.77419        4.52238        0.67029
H          2.40557        2.93759       -1.34896
