12
-1253.96
O          1.67658       -0.21399        1.43921
C          2.35170       -0.02836        0.20641
C          2.91275        1.35149        0.19806
C          4.20674        1.63646        0.00000
C          4.67607        2.96181        0.00000
C          5.07335        4.08371        0.00000
H          1.32557       -1.12057        1.43448
H          1.63153       -0.14712       -0.61028
H          3.12847       -0.79477        0.11042
H          2.19908        2.15358        0.36918
H          4.93018        0.84337       -0.16366
H          5.42605        5.08861        0.00307
