14

C	0.885231	-0.108298	0.03929
C	2.408353	-0.028209	-0.025383
C	2.903718	1.382285	-0.043871
N	3.066432	2.118011	1.015085
C	3.463437	3.381595	0.68967
C	3.607359	3.636308	-0.646868
S	3.228842	2.218274	-1.539654
H	0.548185	-1.154468	0.086687
H	0.425412	0.359221	-0.844992
H	0.511151	0.416029	0.93114
H	2.783731	-0.567666	-0.909503
H	2.849427	-0.510559	0.860734
H	3.649326	4.111489	1.480153
H	3.920327	4.558368	-1.133868
