18
-1785.84
C          1.40147       -0.24418       -0.37866
C          2.78827        0.05984        0.08958
C          3.64218       -1.05749        0.64146
C          3.97762       -0.44332       -0.68390
N          4.97422        0.63849       -0.79989
C          4.26101        1.87936       -0.43920
C          3.10364        1.47730        0.48625
H          1.01336        0.56276       -1.00851
H          0.73292       -0.36004        0.47997
H          1.36175       -1.17013       -0.96275
H          3.24020       -2.06486        0.64011
H          4.28307       -0.85276        1.49120
H          3.81367       -1.03590       -1.57817
H          5.72417        0.48262       -0.12588
H          4.92657        2.61185        0.02724
H          3.86143        2.32483       -1.35793
H          3.41686        1.51431        1.53589
H          2.25234        2.15346        0.35917
