21

C	1.427206	-0.428433	-0.178566
N	2.808529	-0.0385	-0.057124
C	3.016289	1.392765	-0.072078
C	4.490125	1.736596	0.051357
C	4.784828	3.23337	0.104132
C	6.267154	3.493571	0.368132
N	4.280429	3.877818	-1.100824
H	1.341749	-1.525794	-0.207977
H	0.906176	-0.019532	-1.073854
H	0.860676	-0.082407	0.702802
H	3.355971	-0.467954	-0.800246
H	2.473462	1.828789	0.787526
H	2.599824	1.895616	-0.971504
H	5.043046	1.299607	-0.804464
H	4.894602	1.246008	0.951919
H	4.208561	3.652878	0.950543
H	6.884639	3.067836	-0.441148
H	6.602185	3.043038	1.316127
H	6.474704	4.574598	0.416856
H	4.807473	3.550304	-1.91091
H	4.43113	4.883945	-1.05442
