17
-1710.18
C         -0.87706        0.00094       -1.15057
C         -0.59178        1.04204       -0.02452
C         -1.24263       -0.00148        0.92454
C         -0.59211       -1.04351       -0.02753
C          0.89791       -1.20250        0.27121
O          1.61069       -0.00146       -0.05477
C          0.89869        1.19926        0.27424
H         -1.90921        0.00167       -1.52083
H         -0.19955        0.00180       -2.00890
H         -1.12728        1.99249       -0.09957
H         -0.90454       -0.00314        1.96459
H         -2.33953       -0.00143        0.91731
H         -1.12833       -1.99336       -0.10466
H          1.07179       -1.44915        1.32407
H          1.32533       -2.00627       -0.33646
H          1.32655        2.00490       -0.33115
H          1.07262        1.44346        1.32801
