11
-1187.59
C          1.02226       -0.00930       -0.00478
C          2.49421        0.09243       -0.00618
N          3.25260        1.17000       -0.00794
C          4.52918        0.67011       -0.00882
C          4.49301       -0.70153       -0.00760
O          3.18702       -1.08752       -0.00598
H          0.56614        0.98478        0.00708
H          0.67689       -0.55560        0.87807
H          0.67421       -0.53581       -0.89851
H          5.39499        1.31676       -0.01027
H          5.23125       -1.48882       -0.00767
