17
-1635.14
C          3.89584       -2.47719        1.00094
O          4.86173       -1.47653        0.71491
C          4.24685       -0.27384        0.24893
C          5.27255        0.80642       -0.03613
C          6.58269        0.54183       -0.19426
O          4.70303        2.06396       -0.08979
C          5.56676        3.18535       -0.23641
H          4.41432       -3.35244        1.40247
H          3.37034       -2.77138        0.08683
H          3.17991       -2.12308        1.74999
H          3.55278        0.08725        1.01852
H          3.68244       -0.48066       -0.66779
H          6.95038       -0.47852       -0.13149
H          7.32740        1.30223       -0.39199
H          4.95246        4.08935       -0.19920
H          6.07484        3.16205       -1.20534
H          6.28877        3.23690        0.58562
