11
-1069.38
O          1.13899        0.31810       -0.06465
S          2.72480        0.00538        0.00017
O          2.98097       -0.62807        1.27372
O          3.02287       -0.64154       -1.25948
C          3.31419        1.70618        0.00000
C          4.75819        1.70618        0.00000
C          5.94835        1.70618        0.00000
H          0.75699       -0.23728       -0.77895
H          2.90755        2.19057        0.89196
H          2.91087        2.18954       -0.89416
H          7.01483        1.69882        0.00174
