14
-1446.59
C          0.90222        0.07493       -0.00763
C          2.39040        0.01497        0.00022
C          3.29328        1.06039        0.00399
C          4.63713        0.60509        0.01107
N          5.70155        1.42393        0.01580
C          4.72744       -0.76479        0.01235
S          3.18307       -1.50403        0.00509
H          0.55253        1.11265        0.00011
H          0.48819       -0.42399        0.87478
H          0.49890       -0.40743       -0.90407
H          2.99421        2.10031        0.00151
H          5.61582        2.43564        0.02240
H          6.65801        1.08401        0.02850
H          5.61716       -1.37743        0.01701
