12
-1268.01
C          1.00097       -0.05422        0.00304
C          2.52000        0.00000        0.00000
C          3.00202        1.36117        0.00000
C          3.39930        2.48307        0.00000
C          3.89676        3.83654        0.00000
O          3.13201        4.78963        0.00001
H          0.65762       -1.09363        0.00217
H          0.58496        0.44201       -0.88070
H          0.58865        0.43930        0.89002
H          2.89562       -0.53275       -0.88083
H          2.89923       -0.53414        0.87844
H          4.99327        3.94063       -0.00000
