16
-1621.72
C          1.00000        0.00000        0.00000
C          2.44400        0.00000        0.00000
C          3.63416        0.00000        0.00000
C          5.06560        0.01765        0.05765
N          5.82851       -0.67345       -0.98381
C          5.82860        0.78369       -0.99514
C          7.07290        1.51650       -0.63029
H          0.60597        1.02087        0.01164
H          0.60592       -0.52054        0.87824
H          0.60600       -0.50031       -0.88995
H          5.49991       -0.04133        1.05021
H          5.19113       -1.04743       -1.68783
H          5.28852        1.26225       -1.80365
H          7.62522        1.02432        0.17689
H          6.82575        2.53072       -0.30142
H          7.73508        1.59348       -1.49822
