14
-1343.55
C          1.02133        0.06854        0.07610
C          2.50460       -0.08525       -0.01550
C          3.14834       -1.25179        0.13794
C          3.28275        1.15607       -0.29622
N          4.57200        1.19628       -0.42727
N          5.04323        2.44134       -0.67164
H          0.75787        0.76274        0.88074
H          0.52426       -0.88530        0.28207
H          0.61867        0.45836       -0.86448
H          2.61240       -2.17265        0.34156
H          4.23048       -1.31927        0.06064
H          2.66887        2.07216       -0.39212
H          6.01538        2.37108       -0.98416
H          5.09579        2.97703        0.19882
