17

C	3.288266	-0.974339	1.191249
C	2.730443	-0.227684	-0.01065
C	2.980163	1.283468	0.042298
C	4.425648	1.629685	-0.030748
N	5.017278	2.25253	0.912406
N	6.363289	2.464208	0.643776
C	6.960998	3.070037	1.587769
H	3.081469	-2.053414	1.124369
H	2.843007	-0.604377	2.128434
H	4.378828	-0.844543	1.278121
H	1.644126	-0.398515	-0.087826
H	3.164581	-0.635639	-0.940755
H	2.563487	1.71744	0.964737
H	2.468986	1.763293	-0.811631
H	5.000734	1.321781	-0.923641
H	8.029051	3.285432	1.470923
H	6.439385	3.381418	2.507109
