14
-1458.51
O          0.92212       -0.00847        0.10950
C          2.35486        0.00601        0.01533
C          3.07127        1.05459        0.89507
C          4.13767       -0.01312        1.23483
C          3.09614       -1.08175        0.82389
C          5.33766        0.02555        0.42062
N          6.28855        0.05095       -0.24175
H          0.63523       -0.74625       -0.45677
H          2.67236        0.05018       -1.03426
H          2.48550        1.38089        1.76319
H          3.42382        1.94505        0.36532
H          4.37990       -0.04573        2.30394
H          3.46880       -1.92649        0.23625
H          2.51855       -1.47846        1.66781
