14
-1353.47
C          1.68102       -0.12197        0.02526
C          0.71299       -1.20721        0.47709
O         -0.35186       -1.26758       -0.47095
N         -1.50666       -0.60875       -0.00885
C         -1.34768        0.65879        0.24500
C         -0.06763        1.48551        0.21816
O          1.04076        1.03319       -0.52122
H          2.31982       -0.51632       -0.77284
H          2.33930        0.17863        0.84770
H          1.21740       -2.17820        0.50515
H          0.33312       -1.01400        1.48806
H         -2.24297        1.19976        0.59599
H          0.22711        1.67708        1.25716
H         -0.35186        2.45784       -0.19963
