17
-1711.75
C          1.37070       -0.25290       -0.32731
C          2.78182        0.05629        0.05290
C          3.67387       -1.05434        0.56359
C          3.92529       -0.44708       -0.78089
O          4.91311        0.60864       -0.86784
C          4.27016        1.84046       -0.49747
C          3.11942        1.46699        0.43954
H          0.94492        0.55008       -0.93618
H          0.75641       -0.36484        0.57011
H          1.29940       -1.17972       -0.90372
H          3.28013       -2.06393        0.59383
H          4.38054       -0.84027        1.35741
H          3.72499       -1.04142       -1.66412
H          4.99266        2.50988       -0.02142
H          3.89514        2.31056       -1.41357
H          3.45205        1.50069        1.48418
H          2.28542        2.16834        0.33374
