13
-1354.71
N          1.00393        0.03828       -0.01202
C          2.33880       -0.01139       -0.00294
C          3.16612        1.08051        0.00241
N          4.45542        0.61167        0.01082
C          4.44917       -0.75855        0.01103
O          5.59622       -1.42163        0.01855
C          3.13494       -1.17465        0.00236
H          0.49140        0.91357        0.00097
H          0.42247       -0.79242        0.00119
H          2.96477        2.14211        0.00062
H          5.29381        1.17478        0.01587
H          5.37514       -2.37018        0.01665
H          2.79096       -2.19869       -0.00016
