19
-1735.5
C          0.90671       -0.06662        0.16696
C          2.42161        0.04562       -0.07481
N          3.07941       -0.73967        1.00061
C          2.81173       -0.55329       -1.45733
N          2.20445        0.12326       -2.60665
C          2.88457        1.52387        0.02569
O          2.69709        2.03367        1.35149
H          0.34445        0.57373       -0.52087
H          0.63139        0.23400        1.18460
H          0.55808       -1.09649        0.02581
H          2.94516       -0.21610        1.87287
H          4.09042       -0.70434        0.85828
H          2.53634       -1.61476       -1.49631
H          3.90139       -0.50748       -1.57845
H          1.20050       -0.06069       -2.61143
H          2.55930       -0.30462       -3.46200
H          2.34004        2.17143       -0.66953
H          3.95286        1.60931       -0.20148
H          1.74344        2.18893        1.46261
