11
-1250.
C          0.96359        0.10856        0.00172
C          2.16110        0.03106       -0.00080
C          3.58246       -0.06182       -0.00381
N          4.30240        1.06218       -0.00879
N          5.57189        0.62122       -0.01046
C          5.67444       -0.74072       -0.00671
C          4.38412       -1.21740       -0.00229
H         -0.09842        0.18863        0.00391
H          6.31909        1.30799       -0.01423
H          6.63467       -1.23596       -0.00751
H          4.06649       -2.24987        0.00148
