19
-1786.63
C          3.15711       -1.19361       -0.41157
C          2.47561        0.07566        0.09050
N          1.89108       -0.14206        1.41413
C          3.45393        1.21497        0.19758
N          3.65084        2.14085       -0.92397
C          2.96405        2.64234        0.26327
C          3.65133        3.63086        1.13820
H          3.59278       -1.02928       -1.40291
H          2.44271       -2.02008       -0.49037
H          3.96862       -1.50717        0.25492
H          1.66336        0.33592       -0.59889
H          2.61811       -0.44601        2.06069
H          1.22691       -0.91392        1.36407
H          4.34873        0.95918        0.75446
H          2.97846        1.96911       -1.67368
H          1.90122        2.83384        0.17612
H          4.73104        3.45362        1.19948
H          3.24218        3.58246        2.15200
H          3.49520        4.64556        0.75729
