16

O	0.935754	0.315958	-0.26825
C	2.297644	-0.013413	-0.439218
C	3.073912	1.084209	0.261193
O	2.705328	1.151867	1.613385
C	4.573054	0.936915	0.20072
C	5.293295	-0.354642	0.182091
N	5.15582	0.439544	-1.030399
H	0.397762	-0.430836	-0.543797
H	2.596964	-0.064884	-1.501002
H	2.534263	-0.98243	0.040417
H	2.81414	2.031848	-0.261138
H	1.739436	1.123122	1.616077
H	5.08134	1.757499	0.723891
H	4.749076	-1.304547	0.189152
H	6.26454	-0.395036	0.687854
H	6.019394	0.926797	-1.259768
