13

C	1.456724	-0.102621	0.39422
N	2.666708	0.164884	0.091883
N	2.89526	1.376585	-0.504238
C	2.684756	2.613151	0.282704
C	4.031466	3.095516	-0.254081
O	4.586551	4.150064	-0.310513
C	4.306915	1.688898	-0.771572
H	1.256766	-1.062052	0.881092
H	0.613284	0.568015	0.167123
H	2.75879	2.424038	1.371657
H	1.784056	3.211533	0.082224
H	4.642828	1.58627	-1.813856
H	4.990196	1.126009	-0.110363
