20
-1916.08
C          1.16704        0.15871        0.17170
C          2.66073       -0.00944       -0.10504
C          2.87695       -0.70766       -1.44732
C          3.35290        1.32859       -0.09942
N          3.78066        1.92917        1.16509
C          4.81524        1.43435        0.26350
C          5.69454        2.41183       -0.43705
H          1.00232        0.63564        1.14405
H          0.65974       -0.81163        0.18164
H          0.68863        0.78610       -0.58893
H          3.08142       -0.65095        0.68006
H          2.46931       -0.11590       -2.27499
H          2.39354       -1.69018       -1.45975
H          3.94526       -0.85418       -1.64177
H          2.95251        2.02092       -0.83350
H          3.64093        1.28698        1.94703
H          5.35090        0.54599        0.57681
H          5.15916        3.32394       -0.72086
H          6.10332        1.96155       -1.34699
H          6.53253        2.69543        0.20745
