17
-1667.02
N          0.99435        0.01681        0.00824
C          2.44756       -0.00424       -0.01158
C          3.02598       -1.26845        0.64098
C          3.30159       -0.88815        2.10256
N          4.48201       -1.54446        2.64018
C          3.47884        0.58983        2.01606
C          2.99131        1.07484        0.86638
H          0.63559       -0.74625       -0.56218
H          0.66525        0.87680       -0.42679
H          2.81297        0.09625       -1.03872
H          3.95699       -1.53807        0.12117
H          2.36695       -2.14127        0.56268
H          2.43688       -1.11431        2.73676
H          5.27975       -1.34846        2.03812
H          4.34517       -2.55269        2.60419
H          3.87866        1.19227        2.81996
H          2.96253        2.12520        0.61357
