17

C	0.867631	-0.024025	-0.16123
C	2.199214	0.004643	0.014276
C	2.955636	1.27254	0.325276
C	4.330393	1.281537	-0.337274
C	5.150708	0.067606	0.088283
C	4.351957	-1.197904	0.006625
C	3.008553	-1.212197	-0.051959
H	0.266488	0.888156	-0.114985
H	0.342231	-0.963773	-0.35335
H	2.364811	2.152889	0.028725
H	3.087772	1.335318	1.421576
H	4.867695	2.212801	-0.097273
H	4.199894	1.261005	-1.432875
H	5.520016	0.199272	1.123813
H	6.058436	-0.023045	-0.531476
H	4.899025	-2.146319	-0.014347
H	2.47793	-2.165034	-0.147835
