17
-1682.78
C          1.05813       -0.14634       -0.56908
O          2.43603       -0.05290       -0.23103
C          2.91638        1.29047       -0.33928
C          4.41401        1.33855        0.00000
C          5.22667        0.48597       -0.97906
C          4.89602        2.69973        0.00000
C          5.29331        3.82162        0.00000
H          0.75124       -1.19106       -0.47318
H          0.89524        0.17162       -1.60272
H          0.45486        0.45997        0.11252
H          2.35239        1.92455        0.35750
H          2.74023        1.66085       -1.35726
H          4.55205        0.90125        0.99719
H          5.11067        0.84147       -2.00936
H          4.91425       -0.56271       -0.94581
H          6.29467        0.52137       -0.73585
H          5.65325        4.82488        0.00127
