15
-1515.29
C          0.61044       -0.07926        0.10880
C          2.08296       -0.36959        0.04498
C          2.55515       -1.61656        0.20876
O          2.83623        0.75772       -0.19417
C          4.24610        0.60476       -0.31370
C          4.81151        1.97820       -0.56715
O          5.71339        2.20662       -1.37020
H          0.40354        0.64674        0.90185
H          0.01737       -0.97690        0.31235
H          0.26860        0.34110       -0.84264
H          1.87789       -2.44620        0.39154
H          3.60756       -1.86783        0.16777
H          4.50005       -0.04412       -1.15832
H          4.67679        0.23430        0.62232
H          4.43321        2.77727        0.09306
