15

N	1.104185	-0.157997	0.401319
C	2.241941	-0.124775	0.191104
C	3.672755	-0.055488	-0.076883
C	4.271959	1.330746	0.173177
C	5.753689	1.325077	-0.093444
C	6.711562	2.05515	0.76572
N	6.565511	0.612038	0.880026
H	3.840405	-0.370567	-1.120654
H	4.190843	-0.786557	0.565478
H	4.093167	1.616918	1.220913
H	3.774358	2.083301	-0.459137
H	6.028598	1.223219	-1.15329
H	6.342108	2.634691	1.619552
H	7.613623	2.466911	0.298876
H	7.342886	0.130053	0.432753
