15
-1577.68
C          0.88343       -1.32170        0.70666
O          1.58938       -0.06480        0.84856
C          0.78052        0.54171       -0.19111
C         -0.22952        1.55592        0.35267
C         -1.53069        0.80366        0.35679
C         -1.41518       -0.46378       -0.05692
C         -0.00951       -0.76161       -0.40449
H          1.55927       -2.12427        0.39683
H          0.38608       -1.60529        1.63952
H          1.39044        0.88033       -1.03430
H          0.03036        1.89479        1.36031
H         -0.30339        2.42514       -0.30796
H         -2.46211        1.25655        0.67125
H         -2.22539       -1.17614       -0.12909
H          0.12119       -1.22769       -1.38520
