15

C	0.951509	0.055043	-0.008272
N	2.387699	-0.021391	0.000118
C	3.263652	1.018518	0.003757
N	4.510386	0.620559	0.009615
C	4.462293	-0.748384	0.009454
C	5.699647	-1.577889	0.014491
C	3.149001	-1.16577	0.004026
H	0.646156	1.109507	-0.000985
H	0.523019	-0.43571	0.879256
H	0.533526	-0.420551	-0.909072
H	2.920642	2.054623	0.002114
H	5.46341	-2.651367	0.020103
H	6.316534	-1.352706	0.89896
H	6.317691	-1.362446	-0.871677
H	2.701176	-2.157185	0.002443
