20
-1914.16
C          2.62316       -1.50910        0.95513
C          3.62917       -0.81940        0.04675
C          3.22726        0.59877       -0.24059
C          3.97153        1.66697        0.08756
C          3.58673        3.08724       -0.19153
N          4.61417        3.70269       -1.02626
C          4.29886        5.09860       -1.29411
H          2.93071       -2.54242        1.14307
H          1.62763       -1.53075        0.49971
H          2.54614       -0.99744        1.92006
H          3.69720       -1.36453       -0.90196
H          4.62194       -0.86067        0.51092
H          2.27945        0.73923       -0.75568
H          4.92141        1.52687        0.60044
H          3.50812        3.61545        0.76611
H          2.60887        3.13734       -0.68492
H          4.65865        3.19445       -1.90911
H          4.26405        5.68146       -0.36771
H          3.34338        5.20268       -1.81898
H          5.07889        5.53360       -1.92694
