18

C	1.052081	-0.111298	-0.01567
C	2.53859	0.0916	-0.049668
C	3.463353	-0.535319	-1.120357
C	4.474502	-0.32373	0.021241
C	4.591412	1.200536	0.100991
C	3.077894	1.527864	0.044912
N	3.37843	-0.560909	1.014756
H	0.634431	0.283242	0.923887
H	0.787879	-1.178043	-0.087297
H	0.568639	0.415133	-0.852976
H	3.607207	-0.024658	-2.089195
H	3.23286	-1.600061	-1.281938
H	5.395596	-0.915785	0.119978
H	5.059379	1.515827	1.043921
H	5.165573	1.623681	-0.736836
H	2.786694	2.13692	-0.824807
H	2.712424	2.020659	0.95756
H	3.160365	-1.56125	0.992358
