17
-1609.71
C          1.19807        0.15342        0.16192
N          2.61950       -0.01852       -0.14250
C          2.78304       -0.74514       -1.40264
C          3.33050        1.27250       -0.16372
C          3.81045        1.86440        1.13356
C          4.80033        1.30326        0.15596
H          1.07028        0.64951        1.13006
H          0.69814       -0.81825        0.23675
H          0.68501        0.75189       -0.59913
H          2.30303       -1.72815       -1.34756
H          3.84413       -0.92312       -1.60808
H          2.35807       -0.19658       -2.25067
H          2.98612        1.97866       -0.91778
H          3.63605        1.31012        2.04835
H          3.75991        2.94003        1.24721
H          5.42253        1.99754       -0.39476
H          5.29094        0.37203        0.41402
