20

C	0.981006	-0.07403	0.061507
C	2.514408	-0.088322	0.023501
C	3.056065	-0.659715	1.331977
C	2.987767	-0.963314	-1.161883
N	2.541693	-2.33889	-1.054649
C	3.005319	1.313992	-0.238367
C	3.821266	2.049912	0.517598
H	0.566073	0.4022	-0.841799
H	0.61426	0.485458	0.935746
H	0.601163	-1.105154	0.104537
H	2.761152	-0.035932	2.189561
H	4.156208	-0.725681	1.320064
H	2.649445	-1.667525	1.505189
H	4.089407	-0.849871	-1.248286
H	2.562628	-0.537254	-2.086936
H	3.144551	-2.869866	-0.430599
H	2.58244	-2.802692	-1.95793
H	2.626857	1.753419	-1.17183
H	4.23548	1.682379	1.460307
H	4.10458	3.062407	0.218392
