17
-1710.76
C         -1.72440        0.85454        0.56530
C         -1.19306       -0.28309       -0.26446
C         -0.32326       -1.36272        0.30229
C          1.06865       -1.23203       -0.32128
O          1.69846        0.04544       -0.15325
C          0.86241        1.11508        0.30164
C         -0.50771        1.05512       -0.30319
H         -2.65175        1.32016        0.24947
H         -1.60228        0.81247        1.64173
H         -1.73662       -0.59221       -1.14885
H         -0.25507       -1.26717        1.39224
H         -0.74793       -2.34732        0.08130
H          1.74085       -1.98852        0.09617
H          1.01105       -1.41499       -1.40080
H          0.82234        1.07099        1.39622
H          1.35238        2.05721        0.03643
H         -0.59051        1.63462       -1.21357
