9
-1062.67
C          1.00000        0.00000        0.00000
C          2.19016        0.00000        0.00000
C          3.59616        0.00000        0.00000
C          4.25318        1.13799        0.00000
C          5.65918        1.13799        0.00000
N          6.81019        1.13799        0.00000
H         -0.06367       -0.00275       -0.00000
H          4.10594       -0.96036        0.00000
H          3.74995        2.09815        0.00000
