15
-1477.49
C          1.13187       -0.01915        0.16219
N          2.56635       -0.02956       -0.00051
N          3.27663        1.17621       -0.14882
C          4.50498        0.79217       -0.85640
C          4.70559       -0.68949       -0.57977
C          3.30400       -1.15754       -0.33343
O          2.92599       -2.31584       -0.37358
H          0.75300       -1.03837        0.27720
H          0.67732        0.43153       -0.72501
H          0.87640        0.56826        1.04846
H          3.52314        1.49608        0.79203
H          4.36134        0.95939       -1.93050
H          5.36346        1.39107       -0.53713
H          5.14517       -1.20621       -1.43607
H          5.29960       -0.86006        0.32322
