19
-1911.76
C          1.01084        0.00471        0.07630
C          2.52302       -0.00058       -0.07951
C          3.23162        1.03450       -1.02313
C          2.85673        0.05223       -2.17463
C          3.22388       -0.99104       -1.07667
C          4.71887       -0.75645       -0.84693
C          4.72492        0.77760       -0.80771
H          0.69900        0.85058        0.69888
H          0.67810       -0.91377        0.57166
H          0.47461        0.08169       -0.87347
H          2.94570       -0.03260        0.93557
H          2.86529        2.05928       -1.06094
H          3.49606        0.07274       -3.06374
H          1.81774        0.06350       -2.51611
H          2.85006       -2.00959       -1.16668
H          5.06597       -1.19149        0.09568
H          5.33003       -1.14768       -1.66654
H          5.33816        1.20502       -1.60756
H          5.07630        1.16168        0.15491
