14

C	0.790258	0.168786	-0.00909
C	2.271633	0.013104	-0.000678
C	3.240092	0.982714	0.005111
N	4.536166	0.558838	0.011877
C	4.611894	-0.735992	0.011587
C	5.885082	-1.513669	0.016326
S	3.057176	-1.529406	0.003061
H	0.530895	1.236974	-0.004623
H	0.322383	-0.296109	0.87326
H	0.333711	-0.285856	-0.902716
H	3.020592	2.053307	0.004767
H	5.704721	-2.597032	0.028958
H	6.486076	-1.246341	0.899206
H	6.481102	-1.266818	-0.876015
