15
-1469.15
N          1.20350        1.51987       -0.48628
C          2.41824        1.65479        0.08532
N          2.63896        2.21792        1.21668
O          3.40403        1.14210       -0.68825
C          4.76095        1.22899       -0.20966
C          5.80588        0.70168       -1.15499
C          5.65964        2.18096       -0.94904
H          1.25596        1.32694       -1.47991
H          0.52460        2.22758       -0.24829
H          1.74545        2.49731        1.62278
H          4.94384        1.07427        0.85017
H          5.47411        0.28173       -2.09676
H          6.66968        0.20963       -0.72466
H          6.41989        2.69689       -0.37520
H          5.22837        2.76886       -1.74994
