15
-1471.88
C          1.45498        0.45415       -1.33998
C          2.27950       -0.11329       -0.45049
C          3.15466        0.64038        0.51194
C          4.62215        0.38207        0.31887
C          5.54412        0.27599        1.50725
N          5.19270       -0.90434        0.72466
H          0.84921       -0.16069       -1.99941
H          1.36276        1.53138       -1.43170
H          2.33452       -1.19916       -0.39309
H          2.84778        0.37026        1.53023
H          2.98350        1.72008        0.41750
H          5.00541        0.81507       -0.59815
H          5.12489        0.31641        2.50506
H          6.56091        0.63499        1.41328
H          5.95149       -1.17082        0.09419
