14

C	0.423148	1.289775	0.137193
C	-1.063741	1.059754	-0.094332
C	-1.379927	-0.395261	0.08413
C	-0.412318	-1.316196	0.067492
C	1.020903	-0.950831	-0.177513
O	1.195276	0.374142	-0.596187
H	0.731727	2.294661	-0.186255
H	0.644047	1.203711	1.221837
H	-1.347121	1.390602	-1.109786
H	-1.655647	1.67388	0.605185
H	-2.421882	-0.693051	0.239394
H	-0.636854	-2.374196	0.23723
H	1.617169	-1.159516	0.740152
H	1.444861	-1.590993	-0.969691
