15
-1561.87
O          3.17370        3.07923        1.97819
C          2.50119        2.76593        1.00200
C          2.95219        1.82279       -0.08722
C          4.40702        1.37093        0.03912
C          5.44402        2.48226       -0.14900
C          5.36667        3.10420       -1.48067
C          5.30564        3.62778       -2.55805
H          1.47432        3.15393        0.88321
H          2.76874        2.30695       -1.05154
H          2.29729        0.94559       -0.03313
H          4.58759        0.58292       -0.70328
H          4.56198        0.91446        1.02475
H          6.44330        2.04989       -0.01752
H          5.33693        3.25000        0.62381
H          5.25556        4.10182       -3.51243
