11
-1157.45
C          0.97636        0.00502       -0.00668
C          2.47724       -0.00649       -0.00259
C          3.16251       -1.15975        0.00527
C          3.19277        1.22765       -0.00409
C          3.79228        2.26684       -0.00404
H          0.58226        1.02683        0.02009
H          0.58333       -0.52312        0.86861
H          0.58994       -0.47547       -0.91179
H          2.65255       -2.11763        0.00721
H          4.24837       -1.17713        0.00906
H          4.32625        3.19008       -0.00401
