17
-1787.35
C          0.93810       -0.00128       -0.24628
C          2.45474        0.00078       -0.05251
C          2.88293        1.26567        0.65485
C          3.50850        1.27344        1.84466
C          3.85935        0.02322        2.60045
C          3.50859       -1.23944        1.86449
C          2.88358       -1.25222        0.67608
H          0.61295       -0.89230       -0.79500
H          0.61388        0.87565       -0.81754
H          0.40892        0.01101        0.71423
H          2.93460       -0.00753       -1.03923
H          2.66834        2.20882        0.15984
H          3.78575        2.21946        2.30003
H          4.93614        0.02443        2.80406
H          3.33874        0.03072        3.56465
H          3.78647       -2.17814        2.33537
H          2.66900       -2.20383        0.19636
