17
-1697.89
C          1.00074       -0.05370        0.00305
C          2.52000        0.00000        0.00000
C          3.00202        1.36117        0.00000
C          3.39930        2.48307        0.00000
C          3.88132        3.84424        0.00000
C          2.73583        4.85104       -0.02938
O          3.24037        6.18457        0.01338
H          0.65729       -1.09291        0.00300
H          0.58523        0.44197       -0.88105
H          0.58882        0.44069        0.88954
H          2.89554       -0.53282       -0.88081
H          2.89912       -0.53409        0.87850
H          4.53870        4.02198       -0.85946
H          4.50207        4.02916        0.88497
H          2.05596        4.71362        0.81903
H          2.14798        4.74553       -0.94755
H          3.66233        6.30819        0.88188
