16

C	1.018306	-0.08093	0.437391
C	2.394579	0.030782	-0.17201
C	2.650214	1.325238	-0.923803
C	4.057982	1.267702	-1.496505
C	4.335747	-0.109611	-2.016098
N	3.627099	-1.158271	-1.843135
O	2.523705	-1.087058	-1.050812
H	0.869952	0.696142	1.201853
H	0.888655	-1.066608	0.906288
H	0.246886	0.034057	-0.338924
H	3.166961	-0.077325	0.617532
H	2.513706	2.192209	-0.259548
H	1.907183	1.408755	-1.734402
H	4.811151	1.531998	-0.732786
H	4.196648	1.992201	-2.316082
H	5.207716	-0.273621	-2.660449
