16
-1496.89
C          1.37990       -0.51400        0.17607
C          2.75669       -0.08743       -0.29533
O          3.16527        1.04478        0.48593
C          4.36827        1.58143        0.17498
N          5.13686        1.13707       -0.75764
O          6.29164        1.93208       -0.80184
C          7.13327        1.44548       -1.83963
H          1.02533       -1.38096       -0.38801
H          0.66165        0.30372        0.05627
H          1.39849       -0.76790        1.24109
H          2.71395        0.18790       -1.35545
H          3.46757       -0.90917       -0.15258
H          4.58968        2.44170        0.82637
H          8.02554        2.07653       -1.88642
H          6.61615        1.49482       -2.80310
H          7.43977        0.41634       -1.62754
