16
-1571.34
C          0.94827       -0.06725        0.32529
C          2.38002       -0.04810       -0.18762
C          2.78120        1.33132       -0.70122
C          3.90482        1.25357       -1.72668
C          4.49853       -0.12250       -1.82013
N          3.84029       -1.21751       -1.59534
O          2.48757       -0.97362       -1.27315
H          0.80928        0.64500        1.14398
H          0.68579       -1.06868        0.68327
H          0.23971        0.17261       -0.47557
H          3.04985       -0.36825        0.62146
H          3.07333        1.96698        0.14309
H          1.92674        1.83381       -1.17170
H          4.70186        1.96034       -1.47249
H          3.54195        1.52435       -2.72488
H          5.54728       -0.19641       -2.14980
