17

C	4.32089	-0.089041	2.48448
O	3.853083	1.200174	2.217088
C	3.633013	1.460014	0.856716
C	2.678348	2.636791	0.745591
C	4.922405	1.790136	0.096418
C	6.037297	2.413324	0.893202
O	4.989014	1.597427	-1.093269
H	4.464543	-0.175049	3.570667
H	5.288579	-0.306432	1.99002
H	3.598806	-0.863432	2.160877
H	3.189783	0.580345	0.34879
H	3.107984	3.527142	1.228749
H	1.734094	2.395645	1.25369
H	2.47351	2.866028	-0.308871
H	6.465311	1.673868	1.587942
H	5.656519	3.234914	1.51831
H	6.818519	2.772007	0.211911
