11

C	1.018741	0.015224	-0.158504
C	2.339415	-0.040101	0.053748
C	3.254077	-1.15849	0.226048
N	4.466984	-0.753259	0.411126
N	4.465682	0.604258	0.378968
C	3.225486	1.170318	0.167389
O	2.952126	2.344497	0.096475
H	0.533443	0.990866	-0.259151
H	0.405945	-0.886695	-0.235745
H	3.020267	-2.224168	0.213615
H	5.331235	1.110941	0.508641
