20
-1942.37
N          0.99313        0.02787        0.10187
C          2.45545        0.01280        0.02552
C          2.94504       -1.33579       -0.51898
C          2.60468       -1.53791       -1.99638
C          3.10902       -0.37914       -2.85233
C          2.61341        0.96904       -2.33575
C          2.95286        1.16497       -0.85758
H          0.68024        0.90661        0.51093
H          0.67503       -0.71145        0.72783
H          2.84766        0.14884        1.04014
H          2.52716       -2.16172        0.06980
H          4.03478       -1.39108       -0.39677
H          3.05089       -2.47469       -2.34921
H          1.51985       -1.63958       -2.11900
H          4.20604       -0.38372       -2.85843
H          2.78474       -0.51850       -3.88973
H          3.06576        1.77517       -2.92470
H          1.52905        1.04178       -2.48253
H          4.04310        1.24411       -0.75314
H          2.54059        2.12015       -0.51014
