19
-1848.73
C          2.30818       -0.45706       -1.49678
C          2.45979        0.03265       -0.06581
C          3.25825        1.32824       -0.02456
C          2.55440        2.61423       -0.53049
C          3.25687        3.37090        0.61303
C          3.34373        2.02310        1.36693
O          4.54198        1.78632        2.12677
H          1.75189       -1.39907       -1.51965
H          3.28601       -0.62526       -1.95947
H          1.76884        0.27277       -2.10880
H          2.97391       -0.73530        0.52368
H          1.46744        0.17130        0.37897
H          4.25248        1.19322       -0.47587
H          1.46197        2.60073       -0.43827
H          2.82086        2.93405       -1.54122
H          4.22883        3.79463        0.33568
H          2.65688        4.14595        1.09709
H          2.46242        1.84386        1.99616
H          5.27826        1.97189        1.51967
