10

C	0.928037	-0.008754	-0.000337
C	2.138733	0.046594	0.000287
C	3.568074	0.072131	0.001007
N	4.215849	1.225785	0.001997
S	5.837232	0.943931	0.002757
C	5.706827	-0.761429	0.001343
C	4.382644	-1.106032	0.000621
H	-0.146082	-0.047909	-0.000892
H	6.57564	-1.420332	0.001228
H	3.991946	-2.122815	-0.000241
