16
-1566.95
N          2.25166       -0.47237        1.33838
C          2.28910        0.06851       -0.01507
C          2.89907        1.45032       -0.02149
C          2.13035        2.53930       -0.19583
C          4.36570        1.51491        0.15771
C          5.24972        1.25266       -1.03838
O          5.17649        2.54674       -0.43359
H          1.77397       -1.37208        1.32088
H          1.67266        0.13873        1.91428
H          1.27282        0.08498       -0.42476
H          2.87507       -0.59846       -0.65627
H          1.05619        2.47182       -0.32676
H          2.57194        3.53165       -0.20620
H          4.70275        1.13659        1.11767
H          4.80147        1.13834       -2.01685
H          6.15520        0.67977       -0.88645
