17
-1698.97
C          0.96348       -0.21894       -0.09691
C          2.43993       -0.05441       -0.06720
O          3.10379       -0.39330       -1.29047
C          3.11759        0.99319       -0.91379
C          4.46641        1.52957       -0.54533
C          4.43918        2.46408        0.63277
C          5.10811        2.25235        1.77296
H          0.49177        0.48131        0.60005
H          0.69102       -1.23582        0.20430
H          0.54875       -0.03753       -1.09476
H          2.88978       -0.35328        0.86898
H          2.51610        1.68576       -1.48680
H          4.86977        2.07550       -1.40676
H          5.16291        0.70188       -0.35681
H          3.83518        3.36289        0.53333
H          5.72645        1.37127        1.91731
H          5.05123        2.96254        2.59281
