14

C	2.529801	-0.524547	-1.624914
N	2.384612	0.108423	-0.336148
C	3.128052	1.317609	-0.175621
C	2.443572	2.643806	-0.540811
O	2.530384	3.082447	0.838317
C	3.061216	1.902728	1.232917
O	3.317767	1.532104	2.330779
H	1.963029	-1.466334	-1.644521
H	3.58134	-0.746564	-1.907416
H	2.108479	0.12078	-2.413108
H	2.60806	-0.530617	0.422936
H	4.177547	1.272579	-0.543189
H	1.395641	2.531392	-0.852414
H	2.98951	3.326713	-1.207237
