18

C	0.807426	0.078746	0.27797
C	2.291855	0.012285	0.007791
C	3.217253	1.002591	0.743528
N	3.792497	-0.087827	1.543359
C	3.118403	-1.098213	0.719347
C	3.932694	-1.978511	-0.167839
C	5.258471	-1.956505	-0.312678
H	0.280783	-0.78556	-0.157418
H	0.362219	0.989216	-0.15401
H	0.604286	0.086522	1.361292
H	2.488181	0.002612	-1.077007
H	2.677615	1.74386	1.361453
H	3.925565	1.555439	0.102534
H	4.806178	-0.138426	1.512746
H	2.467095	-1.752481	1.335709
H	3.343889	-2.701428	-0.747676
H	5.895157	-1.264829	0.248561
H	5.768873	-2.639751	-0.996261
