11

C	0.997107	0.036417	-0.096794
C	2.208042	0.009414	-0.048164
C	3.644694	-0.027692	0.011308
C	4.431496	-0.747931	-1.060901
C	4.468049	0.741854	-0.99739
H	-0.075847	0.060366	-0.140207
H	4.051162	-0.080954	1.027451
H	3.858541	-1.218123	-1.863892
H	5.312757	-1.308703	-0.739563
H	5.375083	1.229088	-0.631056
H	3.920766	1.306356	-1.756273
