17
-1776.14
C          0.96075       -0.01464       -0.44595
C          2.24632       -0.02218        0.30971
C          3.46524        0.74612       -0.15197
C          3.69957        1.19831       -1.58049
C          3.84233       -0.07419       -2.37570
C          3.69093       -1.13369       -1.56468
C          3.46360       -0.77883       -0.15544
H          0.38712        0.88200       -0.19091
H          0.36167       -0.88720       -0.16715
H          1.08823       -0.03050       -1.53122
H          2.05148       -0.02724        1.37861
H          4.06719        1.26786        0.57891
H          4.61917        1.78825       -1.64849
H          2.86220        1.80075       -1.94531
H          4.02043       -0.11397       -3.43962
H          3.73767       -2.16318       -1.89678
H          4.07583       -1.28993        0.57783
