20

C	1.009355	-0.294219	-0.016223
C	2.535174	-0.239384	-0.05531
N	3.120502	-0.945054	-1.18608
C	3.038117	1.203036	-0.039414
C	4.555082	1.320189	0.090504
C	5.048492	2.723568	-0.045989
C	5.72347	3.407239	0.879786
H	0.601367	0.198336	0.880986
H	0.652048	-1.33627	-0.019572
H	0.580906	0.210882	-0.898863
H	2.919843	-0.732925	0.857149
H	2.738948	-0.573878	-2.056737
H	2.864315	-1.930103	-1.163065
H	2.549567	1.752324	0.782891
H	2.704602	1.700424	-0.971155
H	5.00501	0.682427	-0.68999
H	4.877284	0.900952	1.059204
H	4.813979	3.220021	-0.998211
H	5.978454	2.959012	1.846027
H	6.052693	4.435373	0.707502
