14
-1348.07
C          0.84239        0.15082       -0.28329
C          2.26480       -0.07674        0.11841
C          2.60580        0.05889        1.57054
O          2.14937       -1.08791        2.27989
C          3.16963       -0.89076       -0.77740
O          3.21298        0.54430       -0.76489
H          0.71672        0.12603       -1.37182
H          0.49353        1.12647        0.07048
H          0.19560       -0.62162        0.14463
H          2.14807        0.95243        2.00814
H          3.68757        0.13167        1.72296
H          1.17819       -1.06014        2.27814
H          2.74909       -1.37307       -1.65107
H          3.99993       -1.42413       -0.32935
