17

C	1.036339	-0.066973	-0.00849
C	2.557287	0.000432	-0.001753
N	3.163943	-1.088931	-0.773855
N	3.373257	-0.690383	-2.061451
C	3.347631	0.588818	-2.107552
C	3.109476	1.227329	-0.759635
C	4.404544	1.778185	-0.16329
H	0.601893	0.778205	0.547868
H	0.677692	-0.996619	0.461071
H	0.653633	-0.032454	-1.040788
H	2.932522	-0.02336	1.034935
H	2.717143	-1.998816	-0.725636
H	3.564434	1.11678	-3.038983
H	2.355633	2.031784	-0.808755
H	5.158071	0.979512	-0.081064
H	4.230629	2.191723	0.842515
H	4.822933	2.579317	-0.791557
