12
-1272.11
C          3.06409       -1.08848        0.55540
O          2.29266        0.07240        0.27114
C          3.06565        1.17160        0.16222
C          2.54265        2.41140       -0.10929
O          3.57484        3.30055       -0.15403
C          4.67040        2.53049        0.09676
N          4.42787        1.25372        0.29312
H          2.37899       -1.93834        0.63029
H          3.58595       -0.99122        1.51405
H          3.77421       -1.29863       -0.25230
H          1.55206        2.80210       -0.28287
H          5.62414        3.03877        0.10995
