10
-1148.4
N          0.97432        0.09512       -0.00000
C          2.33885       -0.03856       -0.00000
C          3.03994       -1.18350        0.00000
C          2.43148       -2.46436       -0.00000
N          1.92524       -3.50707       -0.00000
C          3.05909        1.20508       -0.00000
N          3.63946        2.20966        0.00000
H          0.54993        1.01857        0.00000
H          0.36780       -0.71897        0.00000
H          4.12541       -1.16922        0.00000
