17
-1717.38
O          1.04364       -0.10107       -0.09966
C          2.45733        0.06165       -0.02987
C          3.36835       -0.60325       -1.09962
C          4.42968       -0.31448        0.01014
C          3.29382       -0.76811        0.98354
C          4.46070        1.21165        0.13115
C          2.95348        1.49801        0.09760
H          0.70625        0.22739        0.75119
H          3.49738       -0.06543       -2.04385
H          3.16838       -1.65836       -1.31831
H          5.36591       -0.87015       -0.00023
H          3.08457       -1.84306        1.01933
H          3.35263       -0.38517        2.00678
H          4.91826        1.54157        1.06873
H          4.98428        1.68112       -0.70724
H          2.67410        2.11629       -0.76139
H          2.60949        1.98102        1.01744
