15
-1469.62
C          0.94748       -0.01158       -0.22517
C          2.00759        0.31300        0.52592
C          2.93300        1.37568        0.08807
C          2.45530        2.82934        0.29468
C          3.88735        3.07694        0.79547
N          3.96143        1.63601        1.12400
H          0.26316       -0.79146        0.09528
H          0.73270        0.48897       -1.16457
H          2.19165       -0.20468        1.46378
H          3.36536        1.18810       -0.90400
H          1.68616        2.97083        1.06412
H          2.16577        3.37433       -0.60767
H          4.58986        3.38867        0.01348
H          3.98081        3.75006        1.65168
H          4.86332        1.20249        0.93758
