13
-1447.48
C          1.04224        0.29878        0.14653
C          2.36253        0.10127       -0.00404
C          2.96796       -1.28279       -0.03869
C          3.37399       -1.64380       -1.40673
C          3.70662       -1.94383       -2.52128
C          3.21891        1.24286       -0.08429
C          3.94068        2.19942       -0.15197
H          0.61717        1.29782        0.18570
H          0.34969       -0.53357        0.22438
H          2.25291       -2.02649        0.33452
H          3.83230       -1.32467        0.63531
H          4.00108       -2.20445       -3.51159
H          4.58108        3.04832       -0.21530
