9
-872.88
C          1.01655       -0.02201       -0.00593
C          2.51647        0.03492       -0.00175
N          3.12995       -1.18165        0.00292
O          3.15911        1.07642       -0.00396
H          0.61092        0.99370        0.00777
H          0.66224       -0.55530        0.88049
H          0.66727       -0.53030       -0.90882
H          2.62525       -2.05607        0.00122
H          4.14148       -1.19852        0.00425
