16
-1602.28
C          0.94943        0.00584        0.02273
C          2.47031        0.00982        0.02271
C          3.02739        1.43282        0.00000
C          4.47139        1.43282        0.00000
C          5.66155        1.43282        0.00000
C          7.10555        1.43282        0.00000
H          0.57283       -1.02228        0.03911
H          0.55539        0.49724       -0.87276
H          0.55534        0.52554        0.90208
H          2.83082       -0.54978       -0.84891
H          2.83077       -0.52167        0.91176
H          2.65572        1.98576        0.87083
H          2.65572        1.95769       -0.88803
H          7.49964        2.45365       -0.01168
H          7.49957        0.91224       -0.87824
H          7.49957        0.93247        0.88992
