12

N	3.002045	-1.467898	0.716108
C	2.363343	-0.534432	0.125691
N	2.955136	0.644217	-0.201782
C	4.363947	0.843395	0.044711
C	4.758733	2.230645	-0.162177
C	5.086901	3.381405	-0.345114
H	2.383971	-2.25424	0.908599
H	1.296356	-0.570701	-0.1641
H	2.470013	1.299554	-0.797336
H	4.98124	0.180605	-0.592798
H	4.584819	0.529939	1.079633
H	5.387137	4.400601	-0.505316
