16

O	0.847335	0.129547	0.145625
C	2.237781	-0.043072	0.076359
C	2.884567	1.326307	0.064469
C	4.410841	1.274429	0.0172
C	4.938509	0.676396	-1.244045
N	5.641789	-0.383076	-1.215466
O	6.029677	-0.789226	-2.464575
H	0.432501	-0.737658	0.134491
H	2.539362	-0.603756	-0.832497
H	2.62834	-0.619753	0.941958
H	2.556806	1.872827	0.963841
H	2.490056	1.890244	-0.798606
H	4.809304	0.695915	0.866011
H	4.805296	2.300704	0.113399
H	4.700924	1.1537	-2.209965
H	6.541162	-1.585649	-2.289449
