14
-1420.96
C          1.45611       -0.65043        0.41476
C          2.40451       -0.12401       -0.37015
C          3.14876        1.14323       -0.05429
C          4.65134        0.89897        0.03938
C          5.41595        2.17136        0.30689
O          4.90422        3.27442        0.46265
H          0.93896       -1.56120        0.12856
H          1.16490       -0.18366        1.35075
H          2.64697       -0.62112       -1.30759
H          2.78576        1.58327        0.88286
H          2.93762        1.87452       -0.84385
H          5.03518        0.47734       -0.89604
H          4.88158        0.19795        0.84939
H          6.51200        2.05273        0.36116
