16

C	0.80938	-0.09443	0.020981
N	2.237475	-0.212255	-0.15018
C	2.821695	-1.445737	-0.13131
O	2.231715	-2.49953	-0.06441
C	3.018493	0.980565	-0.105698
C	4.148778	1.175462	-1.072246
C	2.891153	1.976637	-1.221792
H	0.370299	0.530023	-0.773041
H	0.560194	0.360362	0.995603
H	0.376588	-1.101863	-0.021567
H	3.933139	-1.376374	-0.19684
H	3.156396	1.401882	0.900519
H	4.331855	0.387675	-1.807044
H	5.052328	1.66764	-0.704051
H	2.902329	3.039267	-0.967176
H	2.226985	1.708675	-2.048279
