10
-1070.27
C          1.00000        0.00000        0.00000
C          2.19016        0.00000        0.00000
C          3.63416        0.00000        0.00000
O          4.11710       -1.11876       -0.72433
C          4.79765       -0.53731       -1.72522
N          4.87223        0.74256       -1.75646
O          4.13535        1.18173       -0.63590
H         -0.06580        0.00374       -0.00659
H          4.03588       -0.03846        1.01786
H          5.24250       -1.24219       -2.43866
