17
-1771.02
C          1.06491        0.06204       -0.00513
C          2.56265       -0.13881        0.04404
C          3.05745       -1.51234        0.03355
C          2.31187       -2.62574       -0.01619
C          3.35908        0.95042        0.09707
C          4.80407        1.00412        0.14670
C          5.48377        2.15549        0.21981
H          0.78606        1.12149        0.00419
H          0.58328       -0.40285        0.86171
H          0.64599       -0.37008       -0.92020
H          4.13432       -1.65773        0.07161
H          1.22911       -2.61372       -0.05584
H          2.78993       -3.60052       -0.01748
H          2.87638        1.92922        0.10399
H          5.36960        0.07880        0.12221
H          4.98938        3.12131        0.24892
H          6.56883        2.15176        0.25419
