16
-1583.85
O          1.27436        0.10461        0.68447
C          2.61682        0.04319        0.19360
C          2.84986       -1.30831       -0.47243
C          2.43729       -1.05921       -1.89248
C          3.36033       -0.38222       -2.86306
N          2.33308        0.39212       -2.16946
C          2.81543        1.06155       -0.93548
H          0.69697        0.13198       -0.10254
H          3.28983        0.21131        1.03888
H          2.25002       -2.10422       -0.01974
H          3.90797       -1.59042       -0.43572
H          1.62427       -1.67310       -2.25229
H          4.39935       -0.22785       -2.59754
H          3.18825       -0.54305       -3.92124
H          3.86886        1.35219       -1.02897
H          2.22349        1.96666       -0.76377
