14
-1364.25
C          4.30068        2.79826       -2.43214
O          4.30883        3.51484       -1.20279
N          4.03411        2.61564       -0.16242
C          3.89982        3.28472        0.93515
C          3.62616        2.57849        2.22510
C          2.36533        3.03080        2.89677
O          1.72944        4.02949        2.57609
H          4.61326        3.47679       -3.23040
H          3.28978        2.43889       -2.64838
H          4.99951        1.95683       -2.39137
H          4.00151        4.38457        0.96855
H          4.45792        2.77034        2.90950
H          3.55377        1.50075        2.04990
H          2.05211        2.42448        3.76394
