14

O	1.069461	-0.122813	0.097405
C	2.447252	0.09111	-0.081284
C	2.872811	-0.489668	-1.399983
C	2.04073	-1.034344	-2.286055
C	2.770197	1.562353	-0.038041
C	3.646412	2.124084	0.795274
H	0.80843	0.325618	0.90809
H	3.038107	-0.415979	0.713082
H	3.947302	-0.422311	-1.604303
H	0.97043	-1.099597	-2.075257
H	2.407126	-1.433275	-3.235128
H	2.215153	2.169219	-0.764136
H	4.205256	1.524085	1.521919
H	3.847434	3.198766	0.781217
