13
-1255.97
O          0.93708        0.00606        0.02526
C          2.37370        0.01947        0.00846
C          3.05034        1.05773        0.93515
C          4.12137       -0.00586        1.23823
C          3.07637       -1.07021        0.85203
H          0.68825       -0.78639       -0.48177
H          2.74776        0.06763       -1.02242
H          2.44550        1.34282        1.80371
H          3.41647        1.96303        0.44377
H          4.98263        0.03076        0.56144
H          4.47857       -0.04180        2.27011
H          3.46509       -1.92496        0.29248
H          2.48025       -1.43678        1.69556
