18
-1745.44
C          1.14191       -0.02573        0.08055
C          2.61501        0.10299       -0.31508
C          3.18884       -1.25511       -0.72105
N          2.79378        1.13643       -1.34677
C          2.52513        0.82660       -2.74095
C          2.99243        2.45065       -0.95746
O          3.08661        2.85297        0.19458
H          0.74399        0.93461        0.42491
H          1.01898       -0.75160        0.89101
H          0.52737       -0.35451       -0.76375
H          3.16240        0.43148        0.57755
H          2.63915       -1.69449       -1.55979
H          3.13797       -1.96020        0.11535
H          4.23835       -1.15897       -1.01799
H          3.27232        0.11390       -3.10133
H          2.57494        1.72597       -3.36204
H          1.52458        0.39463       -2.83162
H          3.08331        3.14178       -1.81175
