11
-1193.68
O          1.20792        0.11473        0.49724
C          2.36646        0.03055        0.12931
C          3.17332       -1.24421       -0.07105
C          4.48959       -0.66270       -0.52012
C          4.43427        0.67003       -0.56363
N          3.20023        1.08974       -0.18693
H          2.72102       -1.86315       -0.84883
H          3.27351       -1.78408        0.87294
H          5.35524       -1.25805       -0.77052
H          5.21041        1.36807       -0.84475
H          2.89229        2.05065       -0.13227
