11
-1292.91
N          0.94045       -0.05693       -0.00839
C          2.09780        0.00122       -0.00402
C          3.51940        0.03709        0.00135
C          4.34835        1.13957        0.00410
C          5.68415        0.66586        0.00932
C          5.63138       -0.71040        0.00962
N          4.31123       -1.08312        0.00475
H          4.03023        2.17511        0.00253
H          6.58648        1.26478        0.01251
H          6.41728       -1.45469        0.01286
H          3.97211       -2.03725        0.00380
