16

C	1.105988	-0.065113	0.175197
O	2.493207	0.065986	0.184554
C	2.948869	1.380807	0.012885
C	4.467051	1.323368	-0.062902
C	5.090212	0.866643	1.249266
O	4.848957	0.495715	-1.133151
H	0.863483	-1.129594	0.302013
H	0.66237	0.286834	-0.777797
H	0.63109	0.502994	0.999484
H	2.615543	2.03305	0.846557
H	2.550755	1.806124	-0.930568
H	4.829599	2.337122	-0.306028
H	4.679826	-0.112715	1.537989
H	4.883005	1.578018	2.064173
H	6.178756	0.770433	1.1304
H	4.341269	-0.319102	-1.022182
