19

C	1.230769	2.1595	1.160233
O	2.619304	2.08017	1.124056
C	3.115477	1.446836	-0.02048
C	4.613332	1.335273	0.077195
C	5.097567	0.509461	1.243695
C	5.376155	1.300046	-1.217577
C	5.421013	2.526375	-0.35149
H	0.941702	2.662913	2.094068
H	0.752454	1.158928	1.14068
H	0.82214	2.742493	0.309139
H	2.833409	2.012045	-0.934278
H	2.672522	0.431847	-0.124012
H	6.196891	0.478194	1.284294
H	4.730402	-0.527572	1.172645
H	4.726801	0.937519	2.186871
H	4.815043	1.349541	-2.156039
H	6.266193	0.66623	-1.265335
H	6.343905	2.741586	0.194275
H	4.88344	3.418126	-0.685938
