13
-1427.61
C          1.00000        0.00000        0.00000
C          2.44400        0.00000        0.00000
C          3.63416        0.00000        0.00000
C          5.04016        0.00000        0.00000
C          5.72956       -1.14993       -0.02443
C          5.80794        1.27664        0.02712
O          5.28658        2.38440        0.05065
H          0.60602        1.02088        0.01169
H          0.60597       -0.52055        0.87825
H          0.60597       -0.50030       -0.88994
H          5.21591       -2.10750       -0.04477
H          6.81413       -1.18043       -0.02508
H          6.90621        1.16859        0.02482
