16
-1616.92
N          2.86590       -0.98671       -0.65107
C          2.35835        0.08747        0.18806
C          3.34806        1.20525        0.17139
C          3.44260        2.13560       -1.01045
C          2.87073        2.63474        0.29172
C          3.64490        3.55014        1.07833
C          4.29101        4.31796        1.73778
H          2.21752       -1.77139       -0.61836
H          3.74516       -1.32958       -0.26800
H          2.21778       -0.27081        1.21315
H          1.38256        0.41022       -0.19085
H          4.27323        0.93514        0.66935
H          2.76232        1.97919       -1.84019
H          4.43053        2.46456       -1.31214
H          1.79806        2.80556        0.30954
H          4.86515        4.99999        2.32082
