14
-1335.01
C          1.64835       -0.54333       -0.40175
O          3.00915       -0.13975       -0.32824
C          3.12863        1.22225        0.07968
C          4.57752        1.56067        0.15831
C          5.33152        2.05016       -1.04766
O          4.88409        2.94922       -0.02037
H          1.61590       -1.58908       -0.71927
H          1.10788        0.06167       -1.13625
H          1.17075       -0.46130        0.57948
H          2.67048        1.35269        1.06635
H          2.60871        1.86654       -0.63915
H          5.10808        1.00926        0.92221
H          4.82250        2.08037       -2.00289
H          6.39270        1.84382       -1.10518
