14
-1465.33
O          1.51452        0.02890        1.27849
C          2.40505        0.00840        0.43787
C          3.01397       -1.26220       -0.12992
C          4.03192       -0.77727       -1.11863
N          5.21295       -0.03207       -0.69981
C          4.04567        0.72129       -1.14014
C          3.03652        1.25214       -0.16613
H          2.23260       -1.84028       -0.62957
H          3.47788       -1.84453        0.66960
H          4.09388       -1.33663       -2.04111
H          5.32753       -0.01879        0.31573
H          4.11686        1.25314       -2.07797
H          3.51096        1.84917        0.61732
H          2.26513        1.82989       -0.68177
