15

C	0.894212	-0.071211	-0.079098
N	2.322492	-0.075855	0.115077
C	3.003782	-1.343363	0.083088
C	3.032345	1.072151	0.050778
C	4.38876	1.189734	-0.017707
C	5.007623	2.463916	-0.021508
N	5.524912	3.505835	-0.029032
H	0.501694	0.944793	0.062088
H	0.399834	-0.731021	0.651922
H	0.60979	-0.408567	-1.093219
H	2.29738	-2.147504	0.328123
H	3.815343	-1.363257	0.828045
H	3.444693	-1.555825	-0.908944
H	2.426144	1.983597	0.069489
H	5.045796	0.319518	-0.07266
