15

C	0.956913	0.059234	-0.04793
C	2.440186	0.08192	-0.002663
C	3.292157	1.122288	0.099442
C	4.679375	0.633147	0.046219
C	4.682672	-0.70517	-0.096037
C	3.25691	-1.196222	-0.074175
O	2.876222	-2.10374	-1.074021
H	0.531691	1.070376	-0.111542
H	0.534537	-0.435659	0.84356
H	0.613838	-0.529148	-0.915619
H	3.009699	2.172511	0.202243
H	5.559532	1.275372	0.121277
H	5.545998	-1.368494	-0.161719
H	3.106915	-1.726056	0.88936
H	3.071343	-1.686087	-1.920823
