19
-1740.29
C          2.98307       -1.24389       -0.81585
C          2.62713       -0.17376        0.20673
O          3.00847       -0.63814        1.50829
C          3.27113        1.21297       -0.08195
N          2.87713        2.16182        0.99071
C          4.81956        1.16875       -0.15942
N          5.43407        0.77602        1.12208
H          2.75998       -0.91213       -1.83381
H          2.41095       -2.15655       -0.61573
H          4.03786       -1.52918       -0.75343
H          1.53594       -0.06107        0.22144
H          3.97617       -0.47049        1.57706
H          2.89127        1.59372       -1.03727
H          3.01419        1.66271        1.87691
H          1.86431        2.28800        0.94886
H          5.19804        2.16022       -0.43556
H          5.14662        0.47783       -0.94231
H          5.20662        1.52153        1.78892
H          6.44932        0.82591        1.01638
