15
-1466.65
C          0.99106       -0.01079        0.07637
C          2.52000        0.00000        0.00000
C          2.98583       -0.77053       -1.25499
N          4.43640       -0.98653       -1.28830
C          3.00202        1.36117        0.00000
C          3.39930        2.48307        0.00000
H          0.63860        0.51152        0.97323
H          0.61008       -1.03698        0.11664
H          0.54176        0.48335       -0.79308
H          2.89975       -0.51973        0.88931
H          2.68882       -0.23262       -2.16408
H          2.50178       -1.75349       -1.28591
H          4.90916       -0.08323       -1.23300
H          4.69541       -1.38758       -2.18869
H          3.75412        3.48805        0.00542
