17

C	1.402175	2.904253	0.073202
C	2.582585	2.402024	-0.290778
O	3.237543	1.469873	0.430038
C	4.579127	1.239592	0.098957
C	5.662343	2.144117	0.714465
C	6.513454	0.874359	0.918816
C	5.221053	0.040871	0.796206
H	0.898374	3.626271	-0.569595
H	0.922211	2.593935	1.003574
H	3.079148	2.710731	-1.222013
H	4.692978	1.174112	-1.000952
H	5.299398	2.544676	1.673148
H	6.067121	2.968918	0.108872
H	7.197053	0.697869	0.073764
H	7.088792	0.790256	1.851655
H	5.248379	-0.920705	0.262924
H	4.742366	-0.106081	1.776168
