15

C	0.895016	0.039983	0.039654
C	2.399051	0.043331	-0.021765
C	3.193925	1.027587	0.865964
C	4.291469	0.061892	1.351315
S	3.236089	-1.335717	0.849969
O	2.412625	-1.764199	1.979196
O	3.886539	-2.306096	-0.019553
H	0.474686	-0.763991	-0.581669
H	0.490855	0.997043	-0.325354
H	0.559355	-0.116129	1.075469
H	2.786096	0.024814	-1.052967
H	2.574169	1.375419	1.705034
H	3.574366	1.905486	0.32549
H	5.201895	0.061047	0.736668
H	4.538292	0.061442	2.420768
