15

C	1.157855	0.146244	0.173152
C	2.623056	-0.005833	-0.016899
N	3.27306	-1.101939	0.035185
C	4.667869	-0.773736	-0.236598
C	4.769994	0.747866	-0.0667
N	3.391238	1.126702	-0.34299
O	2.990087	2.30206	0.282402
H	0.716297	-0.833593	0.386495
H	0.695704	0.569151	-0.732695
H	0.951904	0.84226	0.999655
H	5.346188	-1.335586	0.422935
H	4.910647	-1.068027	-1.2739
H	5.477785	1.234735	-0.752948
H	5.023787	1.03443	0.971456
H	2.836709	2.918536	-0.443099
