15
-1503.
O          5.02626       -1.04132       -0.58053
C          3.65471       -1.25399       -0.28662
C          2.91822        0.04084       -0.18311
C          3.44388        1.26114       -0.34403
O          2.68246        2.39677       -0.22971
C          3.27746        3.61998       -0.40127
C          2.58596        4.75766       -0.31094
H          5.43999       -1.91982       -0.62851
H          3.58110       -1.79837        0.65980
H          3.21806       -1.86540       -1.08243
H          1.85837       -0.03485        0.04519
H          4.48908        1.42021       -0.57293
H          4.33733        3.59992       -0.61273
H          1.52247        4.74634       -0.09748
H          3.07119        5.71712       -0.44913
