13
-1343.03
C          3.05956       -1.17050        0.51348
O          2.35023        0.03714        0.28938
C          3.14168        1.12118        0.16417
N          2.50364        2.27100       -0.04671
N          3.49544        3.17052       -0.13292
C          4.73863        2.62556        0.01669
C          4.54039        1.27833        0.21382
H          2.32816       -1.97989        0.59963
H          3.62505       -1.13063        1.45095
H          3.71951       -1.40543       -0.32882
H          3.24895        4.14135       -0.29554
H          5.63122        3.23249       -0.02973
H          5.30279        0.53026        0.36933
