18
-1696.1
C          2.47442       -1.00869       -0.34552
C          1.96830        0.08265        0.58919
C          2.67856        1.42159        0.35749
C          2.12353        2.49378        1.28926
O          4.07482        1.24660        0.63113
N          4.81139        2.18040       -0.11473
C          6.06502        1.99666        0.12324
H          1.91078       -1.93274       -0.18487
H          3.53193       -1.22542       -0.16757
H          2.35392       -0.71452       -1.39243
H          2.12695       -0.25107        1.62220
H          0.88851        0.20531        0.44322
H          2.53487        1.72639       -0.68765
H          2.29994        2.23061        2.33793
H          1.04930        2.63471        1.13752
H          2.62518        3.45174        1.11739
H          6.81644        2.63261       -0.36877
H          6.43849        1.21744        0.80918
