14

N	1.1902	-0.415479	0.681515
C	2.270513	-0.201036	0.326256
C	3.648588	0.07599	-0.126814
C	4.285296	1.247979	0.672978
C	5.536449	0.606141	1.28141
C	5.172261	-0.870511	1.275592
O	4.472813	-1.046367	0.059737
H	3.601003	0.28249	-1.208361
H	3.595922	1.604275	1.451457
H	4.514654	2.099763	0.019114
H	6.411288	0.772653	0.634733
H	5.771941	0.993529	2.282524
H	6.034762	-1.5513	1.269294
H	4.52934	-1.129536	2.140374
