11

O	1.129961	-0.107219	-0.457616
C	2.290356	-0.029555	-0.124503
N	3.135256	-1.078404	0.153638
C	4.456399	-0.666848	0.522929
C	4.35973	0.827509	0.447919
C	3.126773	1.19118	0.078575
H	2.824218	-2.03766	0.094737
H	5.233493	-1.050801	-0.165704
H	4.739946	-0.997942	1.540422
H	5.202851	1.483243	0.671634
H	2.734027	2.196387	-0.06825
