13
-1396.19
O          1.36806        0.02823        1.16368
C          2.33285        0.01142        0.40945
C          2.99503       -1.25775       -0.10094
C          4.04977       -0.76375       -1.04282
O          5.10770       -0.01159       -0.44000
C          4.05413        0.72755       -1.06774
C          3.00390        1.25990       -0.14382
H          2.25485       -1.86595       -0.62771
H          3.43413       -1.81100        0.73364
H          4.24524       -1.35535       -1.92118
H          4.25409        1.28756       -1.96561
H          3.44623        1.83784        0.67232
H          2.26711        1.85479       -0.69044
