16

C	1.080553	0.018083	-0.786367
C	2.337683	0.147696	0.018137
N	2.820537	-0.815095	0.707651
O	2.04569	-1.94841	0.633247
C	3.0347	1.458994	0.071146
C	2.924765	2.303475	1.323985
C	4.226321	1.668319	0.952408
H	0.862053	0.93657	-1.346311
H	0.229987	-0.207167	-0.123698
H	1.158762	-0.829481	-1.484562
H	2.536209	-2.581318	1.166668
H	3.006105	2.010942	-0.874358
H	2.369403	1.869222	2.159964
H	2.807423	3.384675	1.206822
H	5.028685	2.307204	0.574268
H	4.555553	0.802671	1.530801
