18
-1721.15
N          0.80569        0.11096        0.67662
C          2.25782       -0.03166        0.51192
C          2.99307        1.32885        0.47223
C          2.79056        2.13031        1.77233
O          1.42818        2.51063        1.94616
C          4.46947        1.10522        0.22562
C          5.13449        1.57775       -0.83701
H          0.38617       -0.82099        0.68908
H          0.42402        0.56429       -0.15764
H          2.44933       -0.58742       -0.41405
H          2.64076       -0.64106        1.33921
H          2.56384        1.91192       -0.35483
H          3.38418        3.05075        1.75601
H          3.09746        1.55050        2.65000
H          0.90224        1.69991        1.76532
H          5.01465        0.52654        0.96964
H          4.64256        2.16669       -1.60535
H          6.19734        1.38842       -0.95651
