11
-1207.02
C          1.00000        0.00000        0.00000
C          2.44400        0.00000        0.00000
C          3.63416        0.00000        0.00000
C          5.07816        0.00000        0.00000
C          5.56018        1.36117        0.00000
N          5.94439        2.44616        0.00000
H          0.60626        1.02014        0.01165
H          0.60617       -0.52015        0.87762
H          0.60641       -0.49963       -0.88876
H          5.45632       -0.53382       -0.87860
H          5.45632       -0.53383        0.87861
