18
-1768.35
C          1.00000        0.00000        0.00000
C          2.44400        0.00000        0.00000
C          3.63416        0.00000        0.00000
C          5.07816        0.00000        0.00000
C          5.65273        1.41925       -0.01442
C          5.30806        2.18375       -1.29625
N          5.93011        3.50420       -1.28152
H          0.60616        1.02095        0.01121
H          0.60588       -0.52012        0.87846
H          0.60596       -0.50058       -0.88977
H          5.45820       -0.55887       -0.86308
H          5.44651       -0.51717        0.89378
H          6.74366        1.35165        0.08402
H          5.28805        1.97628        0.85859
H          4.22476        2.30629       -1.39805
H          5.66538        1.63081       -2.17199
H          5.57367        4.03753       -0.48940
H          5.64505        4.01602       -2.11539
