12
-1303.12
O          0.89836        0.03348        0.00725
N          2.29147       -0.11562       -0.00233
C          2.87995        1.03203       -0.00339
C          2.29525        2.39062        0.00384
C          3.33897        3.22580       -0.00111
C          4.57348        2.49743       -0.01110
C          4.34859        1.18164       -0.01279
H          0.59279       -0.89257        0.00680
H          1.24395        2.61164        0.01139
H          3.27731        4.30382        0.00191
H          5.54617        2.96617       -0.01644
H          5.04775        0.36593       -0.01942
