18

C	2.123706	4.302945	-0.556338
C	3.235221	3.617728	0.201114
O	3.843106	2.673925	-0.644848
C	4.895253	2.004269	-0.054257
C	5.969713	1.511083	-0.966147
C	6.2666	2.637556	-0.020083
N	7.209145	2.45733	1.039378
H	1.618314	5.045726	0.078647
H	1.37992	3.566644	-0.894834
H	2.523351	4.814826	-1.44429
H	2.836468	3.117938	1.108485
H	3.984582	4.356861	0.550046
H	4.627498	1.368159	0.806533
H	5.858982	1.752838	-2.026101
H	6.407958	0.52897	-0.763211
H	6.308998	3.627389	-0.492502
H	7.321744	1.473523	1.268275
H	6.898071	2.92803	1.886932
