13

S	0.818396	-0.045301	0.014802
C	2.480771	-0.026495	0.00305
N	3.204444	1.113308	-0.004604
C	4.650794	1.25723	-0.035174
C	5.315823	-0.08288	-0.010831
C	4.591634	-1.207019	0.004984
N	3.206827	-1.185386	0.003925
H	2.636546	1.951459	-0.005833
H	4.982273	1.867929	0.827686
H	4.953355	1.821816	-0.939865
H	6.40518	-0.127608	-0.009209
H	5.04547	-2.199641	0.020532
H	2.663427	-2.037521	0.014687
