19
-1787.75
N          0.95541       -0.08631       -0.01306
C          2.40399       -0.05754        0.18492
C          2.97269        1.37048        0.36354
C          2.36731        2.06608        1.60666
N          2.83221        3.44939        1.76755
C          4.48754        1.28198        0.46144
C          5.33253        1.85513       -0.40591
H          0.66212       -1.04192       -0.21295
H          0.71504        0.46209       -0.83920
H          2.87819       -0.53587       -0.68103
H          2.64538       -0.67080        1.06144
H          2.70202        1.95887       -0.52485
H          2.61684        1.50164        2.51339
H          1.27501        2.09240        1.53060
H          3.85034        3.45682        1.82151
H          2.49194        3.81341        2.65588
H          4.89476        0.71447        1.29646
H          4.97306        2.43772       -1.24911
H          6.40675        1.75936       -0.28434
