20
-1916.19
C          0.88928       -0.10892        0.16053
C          2.40370       -0.01579       -0.02909
C          2.82351       -0.04770       -1.50919
N          2.36114        1.13581       -2.23013
C          3.08848        1.08097        0.84537
C          4.17713        0.05190        1.20379
C          3.17678       -1.05979        0.83818
H          0.62028       -0.16909        1.22099
H          0.48738       -1.00028       -0.33332
H          0.38104        0.76872       -0.25108
H          2.42729       -0.94677       -1.99559
H          3.91454       -0.09340       -1.60007
H          1.34401        1.12591       -2.28968
H          2.69544        1.09280       -3.19216
H          2.49954        1.40201        1.71306
H          3.44664        1.97290        0.32455
H          5.05579        0.09138        0.54965
H          4.51337        0.06250        2.24428
H          3.60246       -1.91506        0.30580
H          2.62137       -1.43634        1.70510
