12
-1118.32
N          0.99109        0.00839        0.07670
C          2.44968        0.02969       -0.07108
C          3.08011        1.01958        0.91829
O          3.93681       -0.02469        1.45658
C          3.10032       -1.03423        0.82327
H          0.54429       -0.78398       -0.38386
H          0.52954        0.84036       -0.28980
H          2.82656        0.08134       -1.09543
H          2.43568        1.43576        1.70044
H          3.66478        1.82186        0.45850
H          3.70125       -1.77820        0.29324
H          2.46586       -1.53265        1.56394
