11
-1211.56
C          1.04442       -0.00356       -0.15440
C          2.36087        0.01094        0.05624
C          3.24970       -1.14074        0.22533
N          4.48717       -0.78612        0.41542
N          4.48589        0.59929        0.38329
C          3.24434        1.18529        0.17065
O          2.94491        2.35865        0.09548
H          0.49694        0.92858       -0.26371
H          0.48664       -0.93046       -0.22234
H          2.86788       -2.16965        0.18796
H          5.34464        1.12117        0.50869
