12
-1285.28
C          0.92189       -0.09724       -0.00560
C          2.39044        0.03677       -0.00298
C          3.16799        1.17024       -0.00385
O          2.95549        2.47031       -0.00691
O          4.47671        0.80824       -0.00073
C          4.42332       -0.55422        0.00185
N          3.21348       -1.06975        0.00063
H          0.43020        0.88047        0.00419
H          0.58950       -0.65437        0.87557
H          0.59123       -0.63598       -0.89883
H          3.85115        2.85036       -0.00603
H          5.37017       -1.07554        0.00461
