13
-1409.
C          2.45869        0.38915        0.98796
C          2.08055        0.00702       -0.47401
C          2.38943        1.40285       -0.81644
C          2.47514        2.39626       -1.72545
S          3.04803        3.82413       -0.89222
C          3.13872        3.00726        0.65239
C          2.73824        1.73365        0.46207
H          3.32665       -0.09061        1.45322
H          1.67095        0.37621        1.74985
H          1.04755       -0.28218       -0.69522
H          2.70955       -0.71883       -1.00148
H          2.26037        2.41168       -2.78416
H          3.46760        3.52397        1.54263
