14
-1512.57
C          1.27254       -0.15300       -1.06259
C          2.12637        0.05640       -0.05200
C          3.05769        1.23318        0.04236
C          4.50533        0.81021        0.03070
C          5.22691        0.70553        1.16130
C          5.12897        0.55902       -1.23163
N          5.64397        0.36657       -2.25372
H          0.62257       -1.02309       -1.06850
H          1.20234        0.52705       -1.90617
H          2.15196       -0.65871        0.76880
H          2.82649        1.77581        0.96831
H          2.87550        1.94689       -0.77177
H          4.78680        0.90137        2.13474
H          6.27423        0.41447        1.14534
