14
-1387.01
C          1.45965       -0.37418       -0.22321
O          2.85183       -0.08773       -0.19406
C          3.09723        1.30829       -0.00935
C          4.60396        1.54554        0.01828
C          4.92427        2.96921        0.19852
C          5.19066        4.13006        0.34475
H          1.33255       -1.44960       -0.37336
H          0.97670        0.15389       -1.05103
H          0.99184       -0.09602        0.72607
H          2.64284        1.63702        0.93342
H          2.63830        1.87058       -0.83190
H          5.05012        1.17257       -0.91137
H          5.05279        0.95206        0.82376
H          5.43155        5.16080        0.47420
