17
-1719.92
C          1.67307       -0.07668       -0.00816
C          0.81964       -1.22173        0.53071
C         -0.41978       -1.52953       -0.30752
C         -1.50019       -0.49162       -0.20538
C         -1.34778        0.81111        0.07165
O         -0.18922        1.52875        0.18463
C          0.89030        1.07155       -0.62856
H          2.37217       -0.46370       -0.75887
H          2.28552        0.30490        0.81830
H          1.44547       -2.12056        0.59720
H          0.51612       -0.99059        1.56112
H         -0.83919       -2.47312        0.06270
H         -0.15710       -1.69407       -1.35805
H         -2.51769       -0.86930       -0.29083
H         -2.19427        1.46183        0.26197
H          1.56936        1.92231       -0.75838
H          0.53553        0.82056       -1.63745
