13
-1388.73
C          0.66409       -1.15830       -1.43107
C          0.75933       -0.01332       -0.74290
C          1.97530        0.74841       -0.53256
C          1.95181        1.93371        0.09567
O          3.13391        0.17200       -1.10188
C          4.36899        0.35567       -0.55471
O          4.67489        0.94029        0.47312
H         -0.29366       -1.65875       -1.53454
H          1.51913       -1.62364       -1.90989
H         -0.14910        0.38931       -0.29748
H          1.03334        2.34858        0.49699
H          2.84441        2.53535        0.22627
H          5.10127       -0.15141       -1.20208
