17

C	2.696202	-0.857449	0.193986
O	3.992595	-0.359934	0.099494
C	4.054161	1.029768	0.07253
C	5.473175	1.511818	-0.035257
C	6.498923	0.648243	-0.094925
C	5.701925	2.956988	-0.074188
C	4.766276	3.91491	-0.014864
H	2.7558	-1.95482	0.216197
H	2.06876	-0.55721	-0.669996
H	2.184056	-0.514955	1.116183
H	3.593368	1.464262	0.987559
H	3.469331	1.436283	-0.78251
H	6.323914	-0.428447	-0.064696
H	7.52806	1.008503	-0.174676
H	6.752833	3.255951	-0.160973
H	3.699237	3.692377	0.073707
H	5.042624	4.971443	-0.052149
