21
-1932.28
C          1.01710       -0.03169        0.17918
C          2.51719       -0.06686       -0.13917
C          2.82276       -1.01399       -1.31642
N          2.26639       -0.55946       -2.58777
C          3.03635        1.37252       -0.34755
C          4.53430        1.48950       -0.63920
N          5.34370        0.93100        0.43993
H          0.83360        0.53619        1.09755
H          0.62705       -1.04339        0.33139
H          0.44105        0.44014       -0.62329
H          3.01496       -0.48654        0.74547
H          2.42456       -2.01138       -1.09392
H          3.90544       -1.13473       -1.42856
H          1.24952       -0.55606       -2.53290
H          2.50530       -1.23401       -3.31309
H          2.80577        1.96328        0.54882
H          2.48773        1.84879       -1.16997
H          4.79073        2.54824       -0.76076
H          4.78855        0.99304       -1.58095
H          5.14777        1.43375        1.30431
H          6.32880        1.09113        0.23420
