15
-1420.32
C          1.11923       -0.14076       -0.00158
C          2.59944       -0.00855       -0.10236
N          3.28510       -0.39089       -1.33304
C          3.21769        1.04102       -0.99168
C          4.48708        1.73196       -0.60682
O          5.44222        1.54401       -1.64433
H          0.73757        0.51599        0.78686
H          0.84757       -1.17032        0.25340
H          0.61275        0.12385       -0.93636
H          3.10058       -0.27749        0.82027
H          2.61812       -0.61070       -2.07628
H          2.59678        1.64751       -1.63892
H          4.90898        1.33603        0.32363
H          4.31936        2.80554       -0.47687
H          5.38225        0.59334       -1.86245
