19

C	2.250697	-0.50582	-1.586353
C	2.387819	-0.049853	-0.141534
C	3.231282	1.199381	0.006593
C	2.654964	2.543103	-0.461811
O	2.937803	3.156172	0.791858
C	3.296709	1.898942	1.376776
C	4.610795	1.948316	2.112184
H	1.628298	-1.409417	-1.670224
H	3.233842	-0.734216	-2.027984
H	1.785257	0.275863	-2.20869
H	2.83122	-0.857137	0.46782
H	1.388408	0.139694	0.289296
H	4.242871	1.027365	-0.398293
H	1.568143	2.508823	-0.676902
H	3.159791	3.047696	-1.30313
H	2.495683	1.542981	2.057556
H	5.412606	2.294293	1.442408
H	4.874971	0.951242	2.497836
H	4.550081	2.642402	2.964205
