12

N	0.970235	0.007421	-0.208084
C	2.356232	0.031334	-0.105085
C	3.107672	1.183046	-0.150206
O	2.599005	2.435029	-0.289357
S	4.819953	0.852241	-0.13691
C	4.523455	-0.835927	-0.001004
C	3.188518	-1.129947	-0.018078
H	0.561133	0.93198	-0.120881
H	0.518898	-0.653408	0.414586
H	2.804062	2.951261	0.499952
H	5.358969	-1.530459	0.073574
H	2.795578	-2.14691	0.030851
