17
-1681.81
C          0.97615        0.18092       -0.83408
C          2.49855        0.21398       -0.77001
C          3.02739        1.43282        0.00000
O          2.52396        1.35514        1.34111
C          2.67630        2.56860        2.06731
C          4.47139        1.43282        0.00000
C          5.66155        1.43282        0.00000
H          0.64297       -0.67974       -1.42255
H          0.58441        1.08720       -1.30498
H          0.53721        0.09288        0.16465
H          2.89803        0.21164       -1.79217
H          2.83871       -0.71273       -0.28823
H          2.64019        2.34198       -0.47691
H          2.18246        2.44975        3.03525
H          2.20534        3.40093        1.53760
H          3.73409        2.78521        2.24902
H          6.72711        1.42704        0.00524
