18
-1694.05
C          1.31552       -1.27798       -1.49442
C          2.48625       -0.98302       -0.57060
C          2.94210        0.46847       -0.68997
C          4.11664        0.76616        0.23416
O          4.48321        2.13722        0.07047
N          5.55870        2.41373        0.92798
C          5.89067        3.65156        0.78332
H          1.00560       -2.32263       -1.39152
H          1.58823       -1.10602       -2.54052
H          0.45645       -0.64354       -1.25407
H          3.31642       -1.65543       -0.81630
H          2.19095       -1.19654        0.46330
H          2.11329        1.14776       -0.45415
H          3.22843        0.69329       -1.72507
H          4.97304        0.13050       -0.01925
H          3.83519        0.58928        1.27876
H          6.72046        4.06947        1.37279
H          5.37749        4.33305        0.08487
