12

C	0.407795	1.423579	0.497433
C	0.926487	0.372179	-0.433842
N	0.900057	-0.961167	0.080416
C	-0.407457	-1.294328	0.322364
N	-1.282847	-0.396156	0.051317
C	-0.566178	0.741376	-0.429517
H	0.656494	2.459913	0.25615
H	0.359041	1.189433	1.565921
H	1.642651	0.599125	-1.228714
H	1.643061	-1.630932	-0.054594
H	-0.652232	-2.278878	0.734477
H	-1.053711	1.338264	-1.206961
