12
-1351.51
C          0.96366       -0.01576       -0.00630
C          2.46490       -0.02779       -0.00284
C          3.14847       -1.18229        0.00208
C          3.18162        1.20524       -0.00294
C          3.78168        2.24566       -0.00216
C          4.54766        3.57346       -0.00053
N          5.12644        4.57914        0.00083
H          0.57051        1.00664        0.01028
H          0.57105       -0.53478        0.87459
H          0.57629       -0.50485       -0.90638
H          2.63561       -2.13943        0.00262
H          4.23448       -1.20695        0.00516
