19

O	2.626409	1.794901	-2.072948
C	2.281896	2.186769	-0.767596
C	2.943357	1.238432	0.211179
C	4.455957	1.260254	0.134321
C	5.221188	2.513423	0.616376
C	6.301186	1.578699	1.194383
C	5.276351	0.429971	1.141938
H	2.278179	2.44372	-2.690747
H	1.183496	2.167387	-0.613357
H	2.618295	3.222794	-0.55199
H	2.577824	0.215663	0.011246
H	2.616699	1.499271	1.233675
H	4.759102	1.016103	-0.896622
H	4.667216	3.033183	1.416615
H	5.524726	3.258938	-0.135014
H	7.124267	1.420809	0.480155
H	6.737261	1.837445	2.17107
H	5.623979	-0.566696	0.829252
H	4.738451	0.324285	2.098743
