12

O	2.722488	-1.155556	-0.420915
C	2.206122	-0.106333	-0.143112
C	2.959671	1.16427	0.125187
C	4.471178	0.998304	0.012641
C	5.200733	2.230429	0.276427
C	5.792141	3.263721	0.49856
H	1.090275	-0.016758	-0.065547
H	2.666667	1.526734	1.127113
H	2.584934	1.935747	-0.571805
H	4.722809	0.62201	-0.99266
H	4.804181	0.209659	0.707509
H	6.320801	4.178002	0.695063
