16
-1497.07
C          2.51338       -3.03842        0.32865
C          2.68836       -1.90377       -0.67033
C          2.92417       -2.45027       -2.08387
O          3.26939       -1.39533       -2.98354
O          1.47618       -1.12781       -0.65000
N          1.70392        0.12159       -1.25262
C          0.62597        0.82543       -1.15515
H          2.32816       -2.63825        1.33143
H          3.40178       -3.67611        0.36718
H          1.64635       -3.65764        0.07253
H          3.52362       -1.26477       -0.35720
H          2.02055       -2.92916       -2.47480
H          3.74402       -3.17437       -2.09724
H          2.73124       -0.62730       -2.69157
H          0.59688        1.84469       -1.56963
H         -0.29193        0.45423       -0.66910
