19
-1785.25
C          2.78029       -1.08344       -0.51925
C          2.21860        0.24623       -0.04308
C          3.29466        1.27568        0.12770
N          3.46494        2.34832       -0.85113
C          2.91263        2.69686        0.46203
C          3.73589        3.48764        1.42970
N          3.44690        4.90264        1.22846
H          1.97508       -1.81376       -0.64529
H          3.49438       -1.48722        0.20632
H          3.29997       -0.97243       -1.47612
H          1.71838        0.09548        0.92053
H          1.45289        0.58854       -0.74977
H          4.20012        0.88110        0.57542
H          2.72235        2.34085       -1.55267
H          1.85820        2.94868        0.50383
H          4.80782        3.30694        1.28977
H          3.47619        3.20138        2.45349
H          3.70101        5.13838        0.26827
H          4.06605        5.45087        1.82247
