15

C	-0.006325	0.028094	-1.387781
C	0.032313	-1.110363	-0.339782
C	1.264552	-0.647767	0.450721
C	1.230369	0.688469	0.47944
C	-0.024862	1.120889	-0.291733
C	-1.242206	0.624531	0.501375
C	-1.207926	-0.711717	0.472591
H	0.892655	0.064897	-2.02248
H	-0.916957	0.018044	-2.006596
H	0.055879	-2.144921	-0.706238
H	1.980014	-1.312225	0.937146
H	1.911804	1.367055	0.994382
H	-0.05482	2.17018	-0.613287
H	-1.948211	1.267445	1.028952
H	-1.879538	-1.411791	0.97133
