12
-1213.94
O          2.20711       -1.10809        0.07563
C          1.95190        0.07738       -0.12092
C          2.94641        1.20137        0.01044
C          4.30845        0.74325        0.41412
C          5.43260        0.62147       -0.58101
O          5.31878        1.75377        0.29322
H          0.93315        0.38793       -0.41241
H          2.55752        1.89527        0.76309
H          2.97324        1.72814       -0.95006
H          4.31954        0.12496        1.30250
H          5.22871        0.77798       -1.63254
H          6.22214       -0.09091       -0.37592
