14

O	1.425336	0.188215	0.95992
C	2.413787	0.050253	0.271609
C	3.007531	-1.302391	-0.073682
C	4.023937	-1.281735	-1.21178
C	4.865175	-0.023745	-1.121773
O	4.025149	1.106347	-1.200952
N	3.156795	1.133476	-0.117185
H	2.167589	-1.98493	-0.264406
H	3.477313	-1.651888	0.86218
H	4.659677	-2.180542	-1.187934
H	3.505802	-1.274605	-2.184368
H	5.44961	0.004449	-0.181077
H	5.556212	0.075326	-1.971109
H	2.739337	2.052341	-0.011531
