16
-1488.22
N          2.30406       -0.46543       -1.40386
C          2.42093        0.06696       -0.04421
C          3.20742        1.37588       -0.03913
C          2.48153        2.63758       -0.56157
C          3.15175        3.34376        0.62681
N          3.22931        2.02842        1.30216
H          1.74381       -1.31668       -1.37663
H          3.22544       -0.74732       -1.73599
H          2.92380       -0.67868        0.58349
H          1.41411        0.21407        0.36404
H          4.21694        1.25680       -0.45769
H          1.38746        2.60365       -0.49792
H          2.77532        2.98661       -1.55457
H          4.13115        3.77924        0.39627
H          2.54054        4.08959        1.14193
H          4.08429        1.87737        1.83483
