16
-1617.85
N          1.25165       -0.16827        0.34357
C          2.31721        0.29711       -0.55288
C          2.25391       -0.45940       -1.89826
C          3.40915       -0.15999       -2.76570
C          4.34386        0.08826       -3.47774
C          2.13834        1.78236       -0.72500
C          3.05581        2.70182       -0.39438
H          1.34263        0.32376        1.23237
H          1.40018       -1.15356        0.55524
H          3.28039        0.08785       -0.06923
H          1.32383       -0.22159       -2.43026
H          2.23860       -1.54048       -1.70803
H          5.16922        0.31663       -4.11206
H          1.19400        2.11382       -1.15338
H          4.01565        2.42443        0.02952
H          2.86154        3.75832       -0.55092
