17

C	1.397379	1.928919	-1.084593
C	2.60441	1.348179	-0.386868
O	3.691277	2.211096	-0.566761
C	4.872338	1.789171	0.058099
C	5.912079	2.870384	-0.124942
N	5.479007	4.082957	0.536487
H	0.52407	1.269927	-0.968625
H	1.599709	2.057971	-2.158336
H	1.148715	2.914403	-0.663687
H	2.839503	0.341684	-0.79379
H	2.397283	1.207646	0.695041
H	5.228975	0.832821	-0.377857
H	4.700323	1.623658	1.141338
H	6.097323	2.976506	-1.215716
H	6.856401	2.518688	0.324271
H	4.570638	4.345894	0.156838
H	6.113598	4.851086	0.332571
