22
-2049.73
C          4.24462       -1.01944       -0.58674
C          3.21115       -0.42358        0.35981
C          3.45079        1.07313        0.67159
C          2.28483        1.61038        1.51385
N          4.79276        1.32213        1.23926
C          5.15523        2.73946        1.20945
C          5.00033        0.77644        2.57886
H          3.99301       -2.06118       -0.80844
H          5.24800       -1.00492       -0.15115
H          4.26999       -0.46944       -1.53332
H          3.17979       -1.01509        1.28205
H          2.22313       -0.53484       -0.10519
H          3.40579        1.58789       -0.29908
H          2.20336        1.09535        2.47684
H          1.33641        1.46687        0.98504
H          2.38318        2.68382        1.70508
H          5.04159        3.15185        0.20046
H          6.21039        2.86760        1.47750
H          4.55692        3.34278        1.90055
H          4.82497       -0.30318        2.60669
H          4.36425        1.25303        3.33210
H          6.04330        0.91755        2.88709
