20
-1868.38
C          0.45450        0.93224       -0.43874
C          1.64297        0.53780        0.42848
C          2.83870        1.50132        0.31706
N          2.48968        2.84921        0.78827
C          4.03650        0.95341        1.12174
C          5.30030        1.80163        0.98191
O          5.13313        3.07495        1.59224
H         -0.32387        0.16424       -0.37854
H          0.75015        1.03258       -1.48769
H          0.01046        1.87698       -0.11069
H          1.96429       -0.46710        0.12715
H          1.31375        0.46032        1.47245
H          3.13671        1.57712       -0.73610
H          2.05847        2.77902        1.71262
H          1.76381        3.24118        0.18410
H          4.26426       -0.06227        0.77650
H          3.76238        0.88521        2.18227
H          5.56339        1.95018       -0.06964
H          6.14114        1.30573        1.47582
H          4.24759        3.38885        1.30014
