16

N	1.058274	-0.02741	-0.010551
C	2.495229	0.002138	-0.015984
C	3.107393	1.04867	-0.995878
C	2.761989	0.054371	-2.1347
C	3.168614	-0.945997	-1.04154
O	4.551601	-0.693131	-0.834534
C	4.586536	0.737748	-0.803046
H	0.687691	0.776153	0.492333
H	0.722338	-0.8541	0.479185
H	2.975126	-0.032639	0.985332
H	2.798327	2.104056	-1.002162
H	3.373412	0.073911	-3.04983
H	1.688891	0.033036	-2.35155
H	2.980761	-2.027866	-1.086478
H	5.223487	1.130211	-1.615081
H	4.987852	1.09175	0.162767
