14
-1411.07
N          1.01493       -0.28075       -0.18534
C          2.39637        0.06051        0.19602
C          3.49302       -0.74425       -0.63555
O          4.36101        0.47537       -0.27054
C          3.06329        1.14213       -0.76703
C          2.90678        0.69981       -2.18068
C          3.20365       -0.60370       -2.09018
H          0.32740        0.40330        0.12772
H          0.70439       -1.18114        0.17753
H          2.57359        0.17332        1.27033
H          3.88950       -1.68295       -0.24922
H          3.00538        2.20192       -0.52018
H          2.62254        1.28261       -3.03894
H          3.22429       -1.35964       -2.85476
