13

N	1.02685	-0.011339	0.3221
C	2.449853	-0.017866	-0.00738
C	2.64137	-0.777231	-1.295131
N	3.31177	-0.298939	-2.258339
O	3.38882	-1.152153	-3.320251
C	2.965138	1.35172	-0.062218
C	3.383778	2.486048	-0.035491
H	0.881307	0.495166	1.193165
H	0.707564	-0.965414	0.482944
H	3.070382	-0.548163	0.753209
H	2.187888	-1.779248	-1.362818
H	3.895796	-0.653487	-3.969703
H	3.760315	3.492156	-0.031907
