15
-1514.01
C          4.45718       -0.86223       -0.41772
O          3.33396       -0.12673        0.05481
C          3.42979        1.23522        0.05511
C          4.46388        2.01146       -0.30542
C          4.41738        3.50857       -0.26158
C          5.39040        3.99643        0.78271
O          6.46574        4.52469        0.51396
H          4.21158       -1.92688       -0.35759
H          5.33585       -0.68186        0.20959
H          4.66809       -0.62268       -1.46481
H          2.48886        1.64455        0.41103
H          5.39448        1.57759       -0.66121
H          3.42375        3.89298       -0.01007
H          4.70051        3.91820       -1.23666
H          5.08680        3.83444        1.83160
