13
-1312.8
C          0.15118        0.46218        0.27733
C          0.76499       -0.89850        0.10893
C         -0.17045       -2.07755        0.24640
O         -1.35158       -1.90663        0.50708
N          2.03727       -1.00535       -0.13894
N          2.49115       -2.31055       -0.27281
C          3.76138       -2.32704       -0.50524
H          0.90713        1.24157        0.14654
H         -0.27658        0.54961        1.27973
H         -0.63558        0.60476       -0.46840
H          0.27639       -3.07141        0.09634
H          4.28188       -3.28787       -0.63797
H          4.37268       -1.41123       -0.58051
