16
-1547.56
C          1.24066        0.11788       -0.82044
O          2.22957        0.24027        0.19907
C          2.96117        1.41470        0.09697
C          2.18499        2.69903        0.15985
C          4.29999        1.31599        0.06137
C          5.29729        2.42423       -0.02244
H          0.85186       -0.90455       -0.79143
H          1.67048        0.29188       -1.81314
H          0.40516        0.80137       -0.63898
H          1.35258        2.60391        0.86586
H          1.77832        2.94995       -0.82455
H          2.79062        3.54136        0.50556
H          4.72932        0.31540        0.08237
H          4.84468        3.40225       -0.20075
H          5.98999        2.23028       -0.84780
H          5.87744        2.47420        0.90388
