12

O	0.652755	0.549373	-0.148344
C	1.753475	0.312625	0.26376
C	2.968563	1.173179	-0.010699
C	2.694505	2.653044	-0.337762
C	3.470543	2.96059	0.953118
O	3.827138	3.942245	1.536775
N	3.651711	1.618386	1.19736
H	1.95719	-0.588749	0.901306
H	3.621838	0.646705	-0.733731
H	1.630877	2.927735	-0.32427
H	3.173445	3.040905	-1.24634
H	4.201929	1.128591	1.895077
