14
-1511.06
N         -1.33052        0.82767        0.55913
C         -1.12575       -0.38843       -0.21909
C         -0.20320       -1.40361        0.31506
C          1.12798       -1.22233        0.40932
C          1.72676        0.03942        0.01575
C          0.96016        1.04433       -0.44837
C         -0.49638        0.93596       -0.63213
H         -2.25699        1.21351        0.38469
H         -1.96905       -0.75790       -0.79023
H         -0.63495       -2.34397        0.64408
H          1.77391       -1.99423        0.81301
H          2.79746        0.16055        0.14078
H          1.42512        1.99044       -0.70790
H         -0.91467        1.46131       -1.48232
