16

O	1.574658	-0.258066	-0.837142
C	2.746803	0.065004	-0.177358
C	3.506808	-1.006156	0.547595
C	4.054072	-0.415211	-0.733671
N	5.02362	0.637598	-0.64909
C	4.297449	1.88441	-0.413477
C	2.969884	1.508933	0.273749
H	0.902765	-0.437635	-0.170798
H	3.10134	-2.020209	0.482338
H	4.004672	-0.761135	1.491872
H	4.042424	-1.046304	-1.630174
H	5.706473	0.457403	0.080917
H	4.911492	2.592162	0.165044
H	4.079429	2.368999	-1.381956
H	3.035414	1.592422	1.371908
H	2.127818	2.130665	-0.064978
