13

C	0.864676	0.140801	-0.0161
C	2.346489	-0.007133	0.018582
N	3.199755	0.961099	-0.024559
C	4.492637	0.519637	-0.003593
C	4.660619	-0.842104	0.066652
N	5.8225	-1.578765	0.183869
S	3.096533	-1.59892	0.114094
H	0.632042	1.212102	-0.073012
H	0.388376	-0.276465	0.885275
H	0.423118	-0.363216	-0.890542
H	5.317022	1.234517	-0.041007
H	6.661529	-1.040422	-0.000898
H	5.832565	-2.45992	-0.316981
