14
-1383.97
C          1.16056       -0.28141       -0.17973
O          2.44140        0.02782        0.35006
C          2.89401        1.33855        0.00000
C          2.35926        2.35256        1.00743
C          4.33801        1.33855        0.00000
C          5.52817        1.33855        0.00000
H          0.90060       -1.29852        0.12608
H          1.17776       -0.24372       -1.27323
H          0.39951        0.40006        0.20899
H          2.53910        1.60010       -1.00483
H          2.64521        2.08019        2.03043
H          1.26541        2.38983        0.98689
H          2.73803        3.35976        0.80189
H          6.59350        1.32843        0.00437
