14
-1425.91
C          1.10394       -0.40300        0.48116
C          2.52387       -0.64354        0.04339
O          2.94760       -1.78310       -0.16474
C          3.37303        0.59396       -0.21944
N          4.76696        0.28615        0.02822
C          5.32870        0.51862        1.25588
O          4.78590        1.10824        2.17802
H          0.55857        0.10758       -0.31624
H          1.09692        0.20279        1.39107
H          0.61650       -1.35822        0.69435
H          3.04711        1.41533        0.42455
H          3.26161        0.87889       -1.26861
H          5.19742       -0.42274       -0.55546
H          6.34905        0.10908        1.32817
