15
-1490.43
C          0.85000        0.90098       -0.78564
O         -0.03935        1.04026        0.32720
C          0.63926       -0.22032        0.19358
C          1.55979       -0.54435        1.33556
C          1.06715       -0.36273        2.77879
C          1.57625       -1.78025        2.99561
O          1.78895       -1.96544        1.57652
H          0.40912        0.81193       -1.77084
H          1.77842        1.45586       -0.75432
H          0.04702       -1.08019       -0.09503
H          2.53339       -0.05956        1.17477
H         -0.01568       -0.25128        2.89289
H          1.58211        0.41297        3.35057
H          2.51415       -1.86386        3.55147
H          0.84045       -2.48346        3.39342
