17
-1633.1
C          1.18026        0.25081        0.11715
O          2.60141        0.24194        0.13578
C          3.13508        1.56122        0.04806
C          4.62424        1.46420        0.10196
C          5.44538        1.44965       -1.16320
C          5.46585        2.65599       -0.26680
O          6.65965        2.84879        0.50285
H          0.82832       -0.77667        0.24016
H          0.81499        0.63388       -0.83977
H          0.78680        0.85463        0.94056
H          2.77994        2.15565        0.89723
H          2.79739        2.03367       -0.88206
H          4.95068        0.84702        0.93058
H          4.93360        1.53812       -2.11488
H          6.31907        0.81150       -1.19582
H          4.96277        3.54868       -0.62497
H          7.03023        2.01092        0.82855
