14
-1417.61
O          0.84078       -0.25717       -0.14844
C          2.18807        0.16438        0.17113
C          3.39548       -0.65532       -0.46582
N          4.19842        0.63557       -0.20722
C          2.89885        1.22532       -0.78272
C          2.89978        0.66536       -2.15606
C          3.23768       -0.61267       -1.94126
H          0.29921        0.54109       -0.03237
H          2.27044        0.36935        1.24677
H          3.76230       -1.56462        0.00811
H          4.35837        0.83760        0.77821
H          2.73919        2.29324       -0.64064
H          2.68682        1.16452       -3.08521
H          3.36503       -1.41299       -2.64913
