15
-1468.85
C          1.42360        0.81237        0.44803
C          2.88605        0.54186        0.26256
N          3.70859        1.52569        0.11139
N          5.05261        1.27047       -0.05918
C          5.63124       -0.06011       -0.08300
C          5.87295        2.38117       -0.21466
O          7.08839        2.37403       -0.37792
H          1.10528        0.39038        1.40479
H          0.86854        0.31885       -0.35403
H          1.21649        1.88527        0.43224
H          3.18211       -0.51975        0.26550
H          5.19068       -0.62804       -0.90756
H          5.43013       -0.55576        0.87116
H          6.71415       -0.02249       -0.23030
H          5.30122        3.32424       -0.17599
