15

C	0.637276	0.51748	-0.161098
C	2.106992	0.178224	-0.012268
C	2.978787	1.410379	-0.046515
O	2.561309	2.539708	-0.17391
N	4.340685	1.202287	0.07919
N	4.878447	-0.00885	0.222064
C	6.141336	-0.120915	0.330275
H	0.023677	-0.393946	-0.129145
H	0.445378	1.033131	-1.113192
H	0.304155	1.191593	0.641177
H	2.455048	-0.509462	-0.801154
H	2.313848	-0.35956	0.928231
H	4.918433	2.046689	0.053062
H	6.559876	-1.123996	0.447134
H	6.829843	0.741999	0.31248
