18

C	1.954613	-0.321089	1.44914
C	2.534466	0.08495	0.095532
C	3.041937	1.5049	0.040247
C	1.998548	2.571154	0.209528
C	4.349955	1.749597	-0.145661
C	5.045326	3.069452	-0.220496
H	1.633978	-1.374154	1.440441
H	1.075958	0.283882	1.721946
H	2.703579	-0.201526	2.248042
H	1.757044	-0.047073	-0.680636
H	3.354616	-0.601514	-0.169949
H	1.160982	2.406429	-0.489513
H	2.38588	3.583652	0.037962
H	1.567369	2.550292	1.224284
H	5.00456	0.87531	-0.258897
H	4.361425	3.92493	-0.130997
H	5.590888	3.174336	-1.17386
H	5.799766	3.163062	0.579666
