13

C	1.811299	-0.733219	1.313885
C	2.397738	-0.436557	0.158458
S	3.338216	1.064084	0.010571
O	2.942235	1.696722	-1.245264
O	3.266624	1.774247	1.285252
C	5.006046	0.47634	-0.16727
C	5.639244	0.638218	-1.324761
H	1.187287	-1.624668	1.421062
H	1.939199	-0.071972	2.177053
H	2.321541	-1.018432	-0.764632
H	5.435229	0.044104	0.741108
H	5.120303	1.099138	-2.171376
H	6.680809	0.330344	-1.449528
