13

C	1.129522	-0.040367	0.297303
C	2.393843	0.01882	-0.13477
N	3.151577	1.139945	-0.430532
C	4.416998	0.83289	-0.857062
N	5.293347	1.686062	-1.193651
C	4.447158	-0.682666	-0.80751
O	3.16716	-1.073488	-0.360862
H	0.673646	-1.009869	0.487773
H	0.558105	0.871428	0.462764
H	2.812494	2.088939	-0.358286
H	6.15737	1.222656	-1.475704
H	4.651702	-1.108733	-1.80452
H	5.222818	-1.041198	-0.109163
