15
-1544.29
C          1.00091       -0.05396        0.00277
C          2.52000        0.00000        0.00000
C          3.00202        1.36117        0.00000
C          3.39930        2.48307        0.00000
C          3.95310        3.80132        0.05283
C          3.90398        4.68232       -1.16396
O          2.97602        4.84025       -0.08443
H          0.65748       -1.09334        0.00213
H          0.58525        0.44205       -0.88121
H          0.58857        0.43984        0.88951
H          2.89576       -0.53278       -0.88075
H          2.89906       -0.53407        0.87854
H          4.75688        3.96674        0.76048
H          3.52502        4.27693       -2.09390
H          4.67478        5.43457       -1.27870
