17
-1711.57
C          1.07285       -0.07792       -0.00383
C          2.55360        0.14247       -0.07612
C          3.45194       -0.57630       -1.12443
C          4.45349       -0.27764        0.02761
C          4.56996        1.23738        0.11154
C          3.07857        1.57207        0.03313
O          3.32326       -0.63740        0.94758
H          0.65517        0.33993        0.91790
H          0.82827       -1.14502       -0.02644
H          0.56522        0.39755       -0.84912
H          3.62023       -0.06055       -2.07288
H          3.23304       -1.63371       -1.30069
H          5.32681       -0.92058        0.13375
H          5.01266        1.56616        1.05635
H          5.13536        1.66230       -0.72302
H          2.83566        2.17967       -0.84380
H          2.73006        2.07882        0.93826
