15

C	0.953243	0.030742	-0.088123
C	2.470071	-0.067277	0.023764
C	3.118655	-1.260591	-0.616606
C	4.104884	-0.925565	-1.457868
C	4.300539	0.556565	-1.541891
C	3.179206	1.106287	-0.66463
O	2.87435	2.262291	-0.547844
H	0.615679	1.006679	0.289905
H	0.456711	-0.760992	0.492086
H	0.631451	-0.059824	-1.137013
H	2.744237	-0.012371	1.096666
H	2.808635	-2.286388	-0.401206
H	4.710947	-1.639548	-2.020154
H	5.27558	0.895499	-1.146892
H	4.224733	0.973765	-2.560682
