19
-1782.84
C          1.47817       -0.04423       -1.21973
C          2.00827        0.37491        0.13899
C          2.93592        1.56992        0.00006
C          2.30376        2.95205        0.06641
C          2.28840        3.46651        1.49458
N          4.20407        1.32400       -0.17067
N          5.01497        2.39634       -0.28366
H          0.81487       -0.90845       -1.12023
H          2.29740       -0.31649       -1.89325
H          0.91609        0.76710       -1.69270
H          2.55850       -0.45413        0.59793
H          1.18076        0.63486        0.80728
H          1.27714        2.88617       -0.30973
H          2.83432        3.65075       -0.58738
H          1.75111        2.77949        2.15689
H          1.79578        4.44279        1.54238
H          3.30398        3.57809        1.88810
H          5.92144        2.09149       -0.64788
H          5.23097        2.77763        0.64053
