13

N	0.906423	-0.014937	-0.077081
C	2.181568	0.016282	-0.022224
N	2.97868	1.148669	-0.20955
O	4.198996	1.129801	0.486486
C	5.008168	0.106787	-0.034695
C	4.295091	-1.209056	0.033873
C	2.957619	-1.230255	0.086172
H	0.512371	0.926166	-0.173146
H	2.533117	2.03377	0.014174
H	5.912975	0.105812	0.591568
H	5.314307	0.331211	-1.078471
H	4.88176	-2.132517	0.034018
H	2.373414	-2.148644	0.160546
