14
-1366.19
C          1.66772       -1.74321        1.65521
C          1.60945       -0.85960        0.43287
O          0.67156       -0.93875       -0.36163
C          2.69634        0.18428        0.29095
O          3.96264       -0.45929        0.37090
N          4.93787        0.50056        0.67670
C          6.09472       -0.07028        0.66940
H          2.62120       -2.27511        1.69096
H          0.86223       -2.48199        1.61258
H          1.54294       -1.13162        2.55228
H          2.57087        0.92209        1.09144
H          2.60393        0.67555       -0.68288
H          6.99805        0.51571        0.89635
H          6.23530       -1.14107        0.44218
