17

C	0.928352	0.112618	0.018777
C	2.438036	-0.011647	0.006426
C	3.155393	1.318376	-0.020242
O	2.557369	2.37235	-0.030184
C	4.646553	1.270265	-0.034609
C	5.358398	2.365987	-0.796231
C	5.372852	2.384319	0.686169
H	0.446979	-0.875528	0.03711
H	0.573882	0.656394	-0.868936
H	0.590116	0.681447	0.897108
H	2.793809	-0.594845	-0.86348
H	2.810794	-0.568141	0.886629
H	5.102178	0.276155	-0.026445
H	4.704629	3.08457	-1.298588
H	6.269234	2.092091	-1.334193
H	6.293868	2.123215	1.213048
H	4.72922	3.115475	1.183511
