12

N	0.99732	-0.056791	0.161414
C	2.367066	-0.107588	0.027705
N	3.107355	-1.142976	-0.043633
C	3.049273	1.223431	0.044493
C	2.505098	2.339566	0.558962
C	4.378363	1.260796	-0.499343
N	5.445384	1.35214	-0.940893
H	0.517583	0.737375	-0.243819
H	0.501496	-0.933405	0.057922
H	2.557564	-2.0058	-0.045792
H	1.51161	2.319177	1.011703
H	3.053269	3.283595	0.566571
