16
-1544.53
C          3.28393       -1.17469        0.32757
O          4.15670       -0.05408        0.35413
C          3.54044        1.10185       -0.20595
C          4.54311        2.21055       -0.16564
C          4.93986        2.91841       -1.23520
C          5.94818        4.01913       -1.17820
H          3.80079       -2.02458        0.78069
H          3.02464       -1.43348       -0.70344
H          2.37709       -0.96900        0.90410
H          2.66760        1.38003        0.39529
H          3.21616        0.89138       -1.23154
H          4.96365        2.42727        0.81329
H          4.52664        2.69478       -2.21608
H          6.30761        4.19994       -0.16038
H          5.50719        4.94757       -1.55371
H          6.80910        3.76876       -1.80555
