19
-1842.
C          1.08307        0.02379        0.16968
C          2.59507       -0.02896       -0.04473
C          2.91785       -0.75845       -1.34841
C          3.15940        1.39014       -0.09402
C          3.18297        2.18284        1.22350
O          4.57428        2.53250        1.02742
C          4.68806        1.54119       -0.02172
H          0.83800        0.51853        1.11533
H          0.65820       -0.98502        0.19925
H          0.58603        0.58018       -0.63232
H          3.04572       -0.58534        0.78658
H          2.49663       -0.23431       -2.21284
H          2.51363       -1.77588       -1.33569
H          3.99987       -0.82943       -1.50048
H          2.72975        1.97874       -0.91652
H          3.05106        1.60437        2.14310
H          2.53917        3.06618        1.24574
H          5.15735        1.94987       -0.92054
H          5.24856        0.66759        0.32496
