18
-1762.76
C          1.02715        0.06129        0.18928
C          2.51334        0.04839        0.06495
C          3.24103       -0.66745       -1.06341
C          2.49129       -1.38343       -2.09848
C          2.58299       -1.18642       -3.42074
N          3.12398        0.79080       -1.02825
C          4.36617        1.45932       -0.65728
H          0.71441        0.88375        0.84122
H          0.67958       -0.87485        0.63795
H          0.52036        0.18912       -0.77326
H          2.99271        0.06394        1.03756
H          4.20689       -1.10571       -0.83056
H          1.81043       -2.15607       -1.74748
H          3.24240       -0.42493       -3.82554
H          1.98814       -1.76754       -4.11652
H          4.14088        2.44892       -0.24622
H          4.98566        1.60407       -1.54856
H          4.96747        0.91884        0.08421
