18
-1718.79
N          1.27851        0.12034        0.46862
C          2.60329        0.23311       -0.13982
C          2.55291       -0.32070       -1.57082
C          3.91750       -0.31872       -2.25386
O          3.81546       -0.89748       -3.55122
C          3.00092        1.67995       -0.09896
C          4.08744        2.15344        0.52643
H          1.33197        0.44639        1.43322
H          1.00655       -0.85953        0.51692
H          3.30289       -0.37169        0.45068
H          1.84267        0.24584       -2.18848
H          2.17047       -1.35047       -1.55792
H          4.64974       -0.89494       -1.67886
H          4.30168        0.69781       -2.37891
H          3.45647       -1.79502       -3.44881
H          2.34864        2.38008       -0.61933
H          4.77065        1.50296        1.06306
H          4.31175        3.21602        0.51408
