15
-1418.7
O          2.07861        0.65594        2.55835
N          2.94042        0.52634        1.46257
C          2.98824        1.65905        0.83444
C          3.81692        1.83165       -0.41311
N          4.72438        2.96438       -0.19167
C          6.10564        2.56692        0.06960
C          5.69875        3.12991       -1.26751
H          2.13083       -0.22505        2.97271
H          2.40307        2.53380        1.17193
H          3.12686        2.07421       -1.22884
H          4.32132        0.88852       -0.65595
H          6.34729        1.51301        0.13743
H          6.66159        3.20762        0.74340
H          5.97662        4.15233       -1.49358
H          5.64964        2.46413       -2.11930
