17

C	0.867874	0.043419	0.129817
C	2.373378	-0.038765	0.014742
C	3.22427	0.985722	0.795549
N	3.927357	-0.091575	1.506617
C	3.112666	-1.123484	0.838023
C	3.871338	-2.180854	0.068003
H	0.381443	-0.837311	-0.319917
H	0.472274	0.936004	-0.380827
H	0.558451	0.096156	1.186329
H	2.671804	-0.085665	-1.04668
H	2.635541	1.628331	1.476232
H	3.857717	1.646027	0.178112
H	4.916216	-0.156108	1.280544
H	2.438326	-1.618985	1.564428
H	4.530437	-1.719101	-0.686535
H	3.181179	-2.862784	-0.454228
H	4.495517	-2.790378	0.741892
