11
-1036.5
C          1.15005       -0.15753        0.00779
O          2.51747        0.19677        0.01428
S          2.85820        1.78142       -0.02374
O          2.67264        2.35571       -1.33193
O          2.64746        2.42302        1.24887
C          4.63918        1.67216       -0.00353
C          5.83940        1.59771        0.01008
H          1.07111       -1.24742        0.03672
H          0.66614        0.20476       -0.90408
H          0.64485        0.25384        0.88670
H          6.90231        1.53718        0.02198
