18
-1717.71
C          0.92314        0.03314       -0.14973
C          2.42142        0.02036        0.03753
N          2.86159       -0.08494        1.43750
C          3.26159       -0.66130       -1.01893
C          3.23485        0.84322       -0.94069
C          4.44435        1.61266       -0.53459
O          5.24766        1.84460       -1.68632
H          0.64132        0.10373       -1.20623
H          0.48152        0.88823        0.37329
H          0.48004       -0.88436        0.25253
H          3.83179       -0.38713        1.51022
H          2.32129       -0.79691        1.93038
H          2.75748       -1.12965       -1.85772
H          4.16329       -1.18112       -0.71677
H          2.69076        1.37802       -1.71347
H          5.05913        1.09095        0.20549
H          4.15628        2.58352       -0.12019
H          5.45743        0.97161       -2.05821
