19
-1845.23
C          3.22581       -1.20356        0.92123
O          2.94831       -0.43318       -0.24243
C          3.63110        0.74127       -0.39101
C          4.55220        1.29258        0.41298
C          5.22364        2.61162        0.11491
C          4.91361        3.62176        1.21916
C          6.73259        2.41649       -0.02757
H          2.60028       -2.10051        0.88855
H          2.97097       -0.64730        1.82927
H          4.27306       -1.52264        0.93920
H          3.31042        1.21308       -1.31481
H          4.85565        0.79899        1.33163
H          4.84420        3.01791       -0.83169
H          5.28400        3.28127        2.19263
H          3.83393        3.78559        1.30843
H          5.38036        4.58833        1.00144
H          7.17784        2.02617        0.89475
H          7.22503        3.36640       -0.26225
H          6.96249        1.71338       -0.83602
