18
-1715.62
C          2.62034       -0.66993        0.05981
O          2.22180        0.69484        0.05943
C          3.20374        1.67320        0.05155
C          2.59847        3.06147        0.04374
N          2.25398        3.48853        1.39684
C          4.53136        1.43269        0.03240
C          5.63360        2.44541        0.06292
H          1.71476       -1.28460        0.06664
H          3.19599       -0.91069        0.95968
H          3.18357       -0.91463       -0.84648
H          1.69081        3.05074       -0.57197
H          3.26080        3.79955       -0.41833
H          1.66105        2.76568        1.80601
H          1.67752        4.32509        1.33909
H          4.89959        0.41162        0.02613
H          5.28666        3.47642        0.14806
H          6.23591        2.36206       -0.84718
H          6.28529        2.24781        0.92015
