15

O	1.007658	0.017917	-0.073479
C	2.398013	-0.035222	0.00229
C	2.95704	1.046832	0.920736
O	4.260276	0.614623	1.215112
C	4.253039	-0.794088	1.336349
C	2.992759	-1.264438	0.655272
C	2.440832	-2.474056	0.692749
H	0.717698	-0.549603	-0.793559
H	2.868715	0.091762	-0.9959
H	2.31102	1.111626	1.820653
H	3.011928	2.040899	0.455056
H	5.169234	-1.19098	0.866886
H	4.260576	-1.106069	2.398941
H	1.483583	-2.667905	0.20065
H	2.90366	-3.306748	1.229354
