17

C	0.948235	-0.007854	-0.138597
C	2.462654	0.080635	-0.219317
C	3.004087	1.388353	0.366186
C	4.455358	1.507682	0.31203
C	5.665154	1.593357	0.27602
C	7.12397	1.685063	0.177188
O	7.577785	2.431173	-0.921418
H	0.576832	-0.951427	-0.565599
H	0.467572	0.817252	-0.688535
H	0.598652	0.044033	0.905143
H	2.794899	-0.005062	-1.267158
H	2.923475	-0.766132	0.31543
H	2.676748	1.485995	1.416873
H	2.552833	2.245724	-0.164759
H	7.542614	0.657352	0.182546
H	7.521386	2.179794	1.078562
H	7.157386	2.072663	-1.710414
