17
-1586.56
N          0.95169        0.61325       -0.68908
C          2.24097        0.23674       -0.10517
C          3.14706        1.42620        0.02323
N          2.72923        2.75303       -0.45949
C          2.81007        2.53924        0.99116
C          3.88265        3.22793        1.77679
O          4.96984        3.59358        0.93236
H          0.34162       -0.20448       -0.68352
H          1.10370        0.82829       -1.67631
H          2.71257       -0.52104       -0.74090
H          2.08208       -0.21184        0.88073
H          4.19122        1.16674       -0.10233
H          1.74749        2.68119       -0.75314
H          1.87041        2.49412        1.52897
H          4.26017        2.57603        2.56988
H          3.48726        4.14023        2.23508
H          4.56020        3.73262        0.05356
