17

C	0.919709	0.071656	-0.004989
C	2.407906	0.045067	0.000273
C	3.269744	1.087546	-0.002277
C	4.64556	0.593924	0.004409
C	4.647765	-0.758881	0.011126
C	5.812987	-1.684609	0.01945
C	3.217674	-1.221182	0.009022
H	0.538002	1.102531	-0.008474
H	0.50044	-0.440607	0.878385
H	0.506738	-0.444065	-0.88936
H	2.986429	2.142603	-0.008479
H	5.534853	1.228083	0.004014
H	6.763099	-1.1314	0.0184
H	5.809864	-2.350945	-0.860814
H	5.805691	-2.340191	0.90772
H	2.994233	-1.855142	-0.869916
H	2.988897	-1.846467	0.892811
