17
-1565.05
C          0.80230       -0.65125        0.03437
C          2.31564       -0.43282        0.04927
N          2.94452       -1.27170       -0.98312
C          2.67499        1.05367       -0.13890
O          2.12458        1.54477       -1.36658
N          2.41536        2.91447       -1.46836
C          1.97712        3.34507       -2.60192
H          0.31743       -0.03913        0.80252
H          0.55698       -1.69855        0.24375
H          0.35992       -0.39154       -0.93364
H          2.70497       -0.75698        1.02090
H          2.70117       -0.89483       -1.90087
H          2.55696       -2.21313       -0.94854
H          3.76394        1.18376       -0.15473
H          2.26717        1.63896        0.69478
H          2.10970        4.40234       -2.87753
H          1.46367        2.69747       -3.33195
