15
-1441.95
N          1.83311        1.65122        0.55991
C          2.40773        2.86817        0.52196
S          1.52771        4.23303        0.85940
N          3.72315        2.94226        0.23126
C          4.62935        1.84490       -0.01343
C          6.00294        2.40001       -0.20347
C          6.68822        2.35056       -1.35380
H          2.25335        0.84984        0.11526
H          0.83249        1.61301        0.71330
H          4.09815        3.88383        0.21098
H          4.27886        1.29637       -0.89425
H          4.60651        1.16605        0.84534
H          6.47002        2.85528        0.66746
H          6.27036        1.90164       -2.25001
H          7.68890        2.76710       -1.42295
