20
-1910.33
C          1.04860       -0.03279        0.05705
N          2.50241       -0.06323        0.04764
C          3.07725        0.97275        0.93270
C          4.15429       -0.05226        1.33880
C          3.12250       -1.12920        0.88889
C          2.29635       -1.69684        2.04400
C          3.70882       -2.23157        0.01202
H          0.64918       -0.93738       -0.41302
H          0.69931        0.81740       -0.53876
H          0.60249        0.06466        1.05206
H          2.44329        1.29889        1.76676
H          3.45313        1.85946        0.41335
H          5.06328        0.00103        0.72720
H          4.43949       -0.04904        2.39440
H          1.89580       -0.91602        2.69957
H          2.91736       -2.34772        2.67014
H          1.45884       -2.30016        1.67762
H          4.30766       -1.82526       -0.81116
H          2.91627       -2.84867       -0.42583
H          4.36003       -2.88847        0.59877
