20

C	1.29768	0.229638	1.207624
C	2.130573	0.530988	-0.034084
C	2.988809	1.765758	0.085987
C	2.256021	3.039317	0.426969
N	1.072821	3.207426	-0.400906
C	4.319202	1.69614	-0.093172
C	5.335573	2.789979	-0.031174
H	0.748787	-0.717453	1.090185
H	0.553609	1.020837	1.383601
H	1.930839	0.142507	2.105065
H	1.441979	0.662431	-0.886218
H	2.776846	-0.32901	-0.273424
H	2.954895	3.897341	0.39619
H	1.919776	2.967331	1.477878
H	1.344153	3.354944	-1.371472
H	0.55305	4.03398	-0.115204
H	4.731536	0.701786	-0.310652
H	4.897906	3.787049	0.112904
H	5.939002	2.816102	-0.954525
H	6.046264	2.61915	0.795997
