16

N	0.851285	0.137699	0.246065
C	2.268861	0.063103	0.003556
C	3.141882	0.994285	0.851054
O	3.902925	-0.09414	1.366748
C	3.029084	-1.048904	0.76841
C	3.727815	-2.098583	-0.024809
C	5.0462	-2.126675	-0.217629
H	0.366141	-0.602124	-0.25934
H	0.478166	1.01338	-0.117851
H	2.569206	0.077094	-1.063493
H	2.564362	1.512677	1.638314
H	3.768549	1.724988	0.311669
H	2.36063	-1.513039	1.521746
H	3.0801	-2.871162	-0.458138
H	5.679366	-1.356566	0.231522
H	5.523197	-2.913735	-0.807072
