17
-1755.39
C          2.34228       -1.08131        1.95980
C          2.91479       -0.51296        0.88787
C          3.56200        0.85353        0.77525
C          3.52921        1.65787        2.05445
C          2.89137        2.82796        2.20289
C          4.99165        0.70331        0.30781
C          5.48185        1.22198       -0.82729
H          1.90816       -2.07417        1.89039
H          2.28281       -0.58351        2.92164
H          2.91315       -1.08647       -0.03962
H          2.99353        1.39598        0.00675
H          4.07452        1.25199        2.90470
H          2.33770        3.28262        1.38760
H          2.91510        3.35645        3.15075
H          5.65894        0.13137        0.95066
H          4.86267        1.80428       -1.50233
H          6.52262        1.07610       -1.09939
