17

C	3.983825	-1.208803	-1.128031
C	3.282786	-0.443672	-0.010311
O	3.721431	-0.852812	1.257601
C	3.393565	1.078754	-0.17591
C	4.777153	1.63738	-0.030878
N	5.685995	1.020614	0.617292
N	6.934668	1.518453	0.691005
H	3.556603	-0.968068	-2.114528
H	3.872247	-2.289303	-0.953604
H	5.059468	-0.976428	-1.150946
H	2.207129	-0.690538	-0.053264
H	4.624335	-0.502332	1.336903
H	2.741594	1.55994	0.576478
H	2.991394	1.379453	-1.158125
H	4.987252	2.625045	-0.486594
H	7.423557	1.189935	1.515022
H	7.025148	2.527291	0.554651
