17

C	0.860485	0.236409	-0.290022
C	2.309465	0.089478	0.105869
C	2.570609	0.122867	1.59643
O	2.102978	-1.018683	2.269615
C	3.189157	-0.818811	-0.718982
C	3.356539	0.672106	-0.796654
O	4.455415	1.280318	-0.211716
H	0.733427	0.220806	-1.383227
H	0.441053	1.184061	0.086708
H	0.253848	-0.592063	0.113497
H	2.133322	1.052655	2.015725
H	3.653012	0.177391	1.774829
H	1.146105	-1.053028	2.176068
H	2.753771	-1.348724	-1.571335
H	3.957451	-1.376292	-0.17461
H	2.983382	1.169424	-1.705294
H	5.237061	1.021727	-0.71079
