20
-1858.76
C          3.22443        0.38000       -2.95464
C          4.00854        0.39700       -1.65667
O          4.75629        1.60947       -1.60114
C          5.38566        1.83890       -0.32828
C          6.57415        0.90113       -0.13205
C          5.86676        3.30562       -0.30644
N          4.73777        4.23742       -0.41439
H          2.65380       -0.54749       -3.05325
H          3.89630        0.47581       -3.81388
H          2.53144        1.22659       -2.99583
H          4.68701       -0.46134       -1.63275
H          3.31845        0.33694       -0.80786
H          4.65480        1.69000        0.47701
H          7.24910        0.93996       -0.99352
H          6.24377       -0.13715       -0.03329
H          7.13743        1.15737        0.77034
H          6.53829        3.48481       -1.15444
H          6.41424        3.51930        0.61734
H          4.17264        3.93207       -1.21122
H          5.09077        5.16183       -0.65621
