20
-1909.24
C          1.09291       -0.01844        0.24018
N          2.52768        0.07294        0.00470
C          2.98387        1.46224        0.09114
C          4.47819        1.55688       -0.23849
C          4.97702        2.96915       -0.12328
C          6.05704        3.46565       -1.05001
C          4.65341        3.98825       -1.18571
H          0.78068       -1.06590        0.18552
H          0.52690        0.54065       -0.51228
H          0.82965        0.35307        1.23574
H          2.73948       -0.29695       -0.92173
H          2.80852        1.85220        1.10122
H          2.41926        2.09086       -0.60865
H          4.65888        1.16861       -1.24878
H          5.05378        0.92771        0.45182
H          5.00631        3.30647        0.90759
H          6.42701        2.80491       -1.82583
H          6.80918        4.13202       -0.64277
H          4.45749        5.00540       -0.86697
H          4.07799        3.67641       -2.04967
