10
-1143.43
C          1.00972       -0.05471       -0.12169
C          2.20221        0.04459       -0.02398
C          3.62303        0.16409        0.09644
O          4.33740       -0.53115       -0.93530
C          4.39512        0.90354       -0.96590
C          5.67637        1.44686       -0.63899
N          6.70406        1.90892       -0.36188
H         -0.04813       -0.15006       -0.20896
H          4.03389        0.11481        1.09898
H          3.84575        1.40325       -1.75349
