15
-1484.56
C          1.23875        0.31366       -1.46754
N          2.59403        0.12183       -0.96108
C          3.17832        1.18941       -0.55819
N          4.45950        1.17635       -0.05358
C          5.19753       -0.07206        0.01752
C          5.08666        2.34786        0.32336
O          6.24144        2.46356        0.71491
H          1.14606       -0.17325       -2.44326
H          0.95645        1.36495       -1.59370
H          0.52234       -0.15458       -0.78547
H          2.70941        2.18861       -0.58138
H          4.55733       -0.86301        0.42005
H          6.08686        0.02079        0.64687
H          5.50334       -0.35031       -0.99599
H          4.43461        3.23263        0.22941
