15
-1512.8
C          0.93834        0.05156       -0.06171
C          2.45509       -0.01064       -0.05354
C          3.08439        1.36461        0.00509
O          2.46149        2.41821       -0.03940
C          4.56451        1.38494        0.05289
C          5.26946        2.09184        1.18180
O          5.15219        0.66358        1.14735
H          0.51582       -0.95673       -0.11149
H          0.57137        0.61899       -0.92328
H          0.56111        0.53678        0.84433
H          2.80787       -0.50969       -0.96276
H          2.78865       -0.58876        0.81385
H          5.06489        1.35152       -0.90590
H          4.67350        2.63293        1.90604
H          6.24348        2.52102        0.98652
