15

C	1.934717	0.060174	-0.680122
O	3.226179	0.584557	-0.525631
C	3.353184	1.87337	-0.143168
C	2.348217	2.719086	0.128355
C	4.803108	2.251798	-0.107357
C	5.414828	2.305478	-1.49028
O	6.216698	3.127853	-1.837965
H	2.050639	-0.982453	-1.00201
H	1.361764	0.615695	-1.443578
H	1.373656	0.085426	0.270779
H	1.298349	2.428847	0.082633
H	2.578217	3.74386	0.41934
H	5.350824	1.468781	0.449441
H	4.971797	3.213931	0.393398
H	5.067023	1.496577	-2.183825
