15
-1573.22
C          1.00000        0.00000        0.00000
C          2.44400        0.00000        0.00000
C          3.63416        0.00000        0.00000
C          5.07816        0.00000        0.00000
C          5.66628        1.38680       -0.16201
C          5.27322        2.17492       -1.38628
O          6.48410        1.83772        0.64400
H          0.60612        1.02095        0.00993
H          0.60588       -0.51902        0.87911
H          0.60596       -0.50171       -0.88914
H          5.47328       -0.62479       -0.80835
H          5.45392       -0.41924        0.94027
H          5.45674        1.57700       -2.28268
H          5.87892        3.08383       -1.44527
H          4.22041        2.46012       -1.32861
