14
-1449.89
C          0.88109        0.06228       -0.00992
C          2.36410        0.06511       -0.00025
C          3.25636        1.11771        0.00788
C          4.60605        0.63897        0.01547
C          5.82949        1.48399        0.02566
N          4.75073       -0.68645        0.01354
S          3.25356       -1.39458        0.00198
H          0.48879        1.08450       -0.00247
H          0.48643       -0.45386        0.87142
H          0.49841       -0.43649       -0.90641
H          2.96865        2.16067        0.00846
H          5.57554        2.54873        0.01192
H          6.44922        1.27332       -0.85204
H          6.42245        1.28950        0.92529
