17
-1634.05
C          1.54197       -0.63769       -0.95416
O          2.24509       -0.08517        0.14979
C          2.99578        1.13804       -0.07825
C          4.22083        0.87621       -0.94658
C          2.19701        2.40805       -0.44207
O          2.84303        3.16792        0.61126
C          3.33383        1.93767        1.20208
H          0.88785       -1.43120       -0.58363
H          2.24466       -1.07230       -1.67016
H          0.92715        0.12193       -1.44510
H          4.84515        1.77152       -1.04571
H          3.93223        0.56930       -1.95688
H          4.84092        0.08345       -0.51402
H          1.11536        2.35585       -0.27942
H          2.39644        2.83311       -1.42997
H          4.39332        2.00824        1.46428
H          2.75682        1.66994        2.09332
