19
-1779.47
C          0.87461       -0.88328        0.99283
C          2.22000       -0.59161        0.34614
C          2.50793        0.90867        0.31612
N          3.80852        1.16218       -0.31000
N          4.16740        2.46484       -0.38896
C          5.34473        2.64632       -0.89371
C          5.89562        4.02782       -1.06142
H          0.68103       -1.96050        0.99608
H          0.06181       -0.39367        0.44650
H          0.85298       -0.53112        2.02946
H          2.21979       -0.99570       -0.67310
H          3.00613       -1.11454        0.90267
H          2.50980        1.30653        1.33836
H          1.72087        1.42803       -0.24492
H          3.83105        0.70680       -1.22540
H          5.99157        1.81071       -1.21743
H          5.18545        4.77935       -0.70867
H          6.11287        4.19529       -2.11970
H          6.82783        4.10813       -0.49596
