17
-1653.45
C          1.01160       -0.06574        0.04109
C          2.52958       -0.00625       -0.02117
O          2.93262        0.00206       -1.41358
C          3.17358        1.08082        0.87824
C          4.22996        0.04542        1.30095
C          3.26268       -1.07515        0.85797
O          3.87118       -2.16374        0.13070
H          0.64896       -0.08095        1.07439
H          0.63799       -0.96648       -0.45658
H          0.56865        0.80332       -0.45563
H          3.89368        0.17324       -1.40415
H          2.53992        1.42296        1.70407
H          3.56994        1.95571        0.35585
H          5.15402        0.09031        0.71179
H          4.48969        0.05122        2.36193
H          2.65186       -1.46313        1.68253
H          3.44790       -2.13198       -0.74816
