15
-1558.05
C          0.95730        0.05610       -0.00771
N          2.39485       -0.02473       -0.00087
C          3.26176        1.02633        0.00313
N          4.50991        0.61582        0.00917
C          4.44535       -0.75899        0.00912
C          5.68341       -1.56792        0.01504
C          3.13161       -1.17546        0.00281
H          0.64803        1.10437        0.00283
H          0.57786       -0.45225        0.88231
H          0.58794       -0.43174       -0.91328
H          2.94146        2.06002        0.00140
H          5.45830       -2.63895        0.02337
H          6.28345       -1.33805        0.90082
H          6.28288       -1.35156       -0.87451
H          2.68223       -2.15814        0.00070
