13
-1350.31
C          0.96154       -0.00665       -0.00806
C          2.43972        0.02255       -0.00118
C          3.28747        1.04993        0.00421
O          4.64191        0.67852        0.01078
C          4.54469       -0.70481        0.00936
N          5.59645       -1.43667        0.01506
N          3.23637       -1.08132        0.00173
H          0.54300        1.00495       -0.00448
H          0.58391       -0.53151        0.87509
H          0.59207       -0.52201       -0.90020
H          3.10707        2.10966        0.00452
H          5.31748       -2.41801        0.01288
H          2.88780       -2.02415        0.00095
