15
-1553.05
C          0.86231       -0.21280       -0.10469
C          2.36032       -0.02714        0.09441
O          3.05673       -0.76877       -0.89942
C          2.76120        1.41208       -0.02193
C          3.38370        2.09244        0.95193
C          3.73397        3.45911        0.79085
C          4.03195        4.61440        0.65869
H          0.28720        0.32991        0.65238
H          0.60046       -1.27499       -0.04596
H          0.54623        0.13149       -1.09626
H          2.64649       -0.44045        1.06798
H          2.87569       -0.35687       -1.76045
H          2.52068        1.91792       -0.95411
H          3.64088        1.61240        1.89169
H          4.29778        5.63909        0.54096
