12
-1220.23
C          0.48548        1.46285        0.33426
C          1.01328        0.29759       -0.43530
C          0.98394       -1.08505        0.15328
N         -0.46258       -1.38785        0.33015
C         -1.07176       -0.34297       -0.14499
N         -0.38063        0.75069       -0.61150
H          0.73780        2.46035        0.00316
H          0.20669        1.34931        1.37355
H          1.62683        0.42857       -1.31225
H          1.49698       -1.12055        1.11903
H          1.43112       -1.81570       -0.52751
H         -2.16695       -0.26282       -0.22920
