15

C	2.590511	-0.572354	-1.404029
C	2.357127	0.105272	-0.056196
C	2.814844	1.518735	-0.017477
C	2.188472	2.704889	0.241803
C	3.184478	3.725044	0.115251
C	4.336189	3.078617	-0.214794
O	4.120421	1.748208	-0.296311
H	2.261827	-1.622037	-1.380733
H	3.658542	-0.554833	-1.667264
H	2.039222	-0.057804	-2.205421
H	2.876106	-0.462986	0.73622
H	1.287888	0.094196	0.204104
H	1.138439	2.830567	0.497037
H	3.058635	4.797131	0.252488
H	5.349551	3.415125	-0.417968
