9
-1052.57
N          0.93715       -0.04386       -0.00573
C          2.09808       -0.02336       -0.00208
C          3.52997        0.04954        0.00227
C          4.25175        1.22499        0.00075
S          5.93160        0.86911        0.00729
C          5.55736       -0.80658        0.01155
N          4.27880       -1.11579        0.00846
H          3.89020        2.24394       -0.00373
H          6.33539       -1.55975        0.01650
