18
-1722.58
N          0.66894       -0.18123       -0.49997
C          2.14129       -0.26918       -0.37587
C          2.62892       -1.44002       -1.25124
O          2.11695       -1.30613       -2.57617
C          2.80753        1.05483       -0.81482
C          2.51006        2.20130        0.11958
C          1.91362        3.33978       -0.25889
H          0.34748        0.64789        0.00401
H          0.24483       -0.97933       -0.02597
H          2.40162       -0.47547        0.66952
H          2.27109       -2.39470       -0.85083
H          3.72132       -1.47833       -1.30099
H          1.22588       -0.91609       -2.45130
H          2.50950        1.30756       -1.84047
H          3.89649        0.92008       -0.83290
H          2.82175        2.08770        1.15537
H          1.59601        3.50212       -1.28424
H          1.73533        4.13939        0.45359
