16
-1606.04
C          0.99661        0.20420       -0.32454
C          2.45965        0.05600        0.00288
C          3.00124       -1.16604        0.14518
C          3.24070        1.30449        0.08160
C          2.84906        2.36605        1.07789
C          4.10168        1.56986        1.29134
H          0.86817        0.81414       -1.22495
H          0.46486        0.68829        0.50145
H          0.51411       -0.76194       -0.50896
H          2.40694       -2.06961        0.05954
H          4.06036       -1.28802        0.35140
H          3.62181        1.64642       -0.87757
H          2.02121        2.18372        1.75288
H          2.95081        3.40217        0.77633
H          5.05281        2.06498        1.13383
H          4.10760        0.85347        2.10462
