16
-1605.74
C          3.81351       -1.07871       -1.02352
N          2.91819       -0.14234       -0.34752
C          1.68621       -0.65804        0.05917
O          1.29002       -1.80863       -0.09688
C          3.30828        1.18973       -0.13623
C          2.36352        2.13364        0.57049
C          4.49956        1.66737       -0.53932
H          4.74147       -1.17085       -0.45003
H          4.02471       -0.71318       -2.03357
H          3.37703       -2.07742       -1.11452
H          1.04008        0.07401        0.56228
H          2.14314        1.77561        1.58161
H          1.42882        2.23799        0.00964
H          2.78539        3.13966        0.67479
H          5.24384        1.07091       -1.05333
H          4.77809        2.70280       -0.36372
