9
-1018.44
C          0.96097       -0.05460       -0.00134
C          2.16003        0.00986        0.00027
C          3.56825        0.08924        0.00222
C          4.45298        1.12429        0.00064
N          5.71616        0.60603        0.00414
N          5.63775       -0.72345        0.00786
O          4.27935       -1.06495        0.00669
H         -0.10271       -0.11561       -0.00272
H          4.26620        2.18642       -0.00272
