18
-1694.5
C          0.57172       -0.81203        0.08734
C          2.08182       -0.62783       -0.07735
C          2.61386       -1.55577       -1.16718
C          2.43488        0.82910       -0.39585
O          2.03488        1.66285        0.69407
N          2.35628        2.99172        0.37860
C          1.98991        3.74507        1.35867
H          0.18478       -0.19730        0.90663
H          0.33138       -1.85601        0.31598
H          0.03615       -0.53445       -0.82706
H          2.55132       -0.89993        0.87649
H          2.16669       -1.32454       -2.14015
H          2.39009       -2.60175       -0.93164
H          3.70075       -1.46061       -1.26251
H          1.92717        1.15931       -1.31062
H          3.51747        0.93187       -0.53852
H          2.15510        4.83180        1.30728
H          1.50742        3.35330        2.27014
