15
-1520.95
C          1.13505        0.16377        0.09298
C          2.62084       -0.12397       -0.08728
C          2.86858       -0.81881       -1.36247
N          3.03267       -1.36283       -2.37513
C          3.41491        1.15325       -0.19196
C          3.73719        1.94659        1.05483
N          4.77438        1.20614        0.34965
H          0.95372        0.70118        1.03005
H          0.55551       -0.76574        0.11700
H          0.74069        0.78133       -0.72279
H          2.97327       -0.74053        0.74814
H          3.22208        1.72054       -1.09843
H          3.45243        1.55173        2.02257
H          3.78056        3.02695        0.98818
H          5.36518        1.82974       -0.20646
