15
-1571.73
C          0.68761        0.84051        0.27871
C          1.78058        0.79200       -0.49330
C          3.09402        1.34726       -0.15469
C          3.83245        2.13877       -1.20164
C          3.24540        2.84547       -0.00676
C          4.11840        3.38901        1.06024
O          5.23182        2.93176        1.29208
H         -0.24428        0.39027       -0.04794
H          0.70197        1.32225        1.25120
H          1.70531        0.27905       -1.45110
H          3.69780        0.71054        0.48759
H          3.36617        2.30509       -2.16622
H          4.91028        2.01948       -1.25246
H          2.36612        3.45467       -0.19463
H          3.70538        4.22840        1.64462
