19

C	1.863465	-0.658177	-1.288344
C	2.352626	-0.048725	0.017628
C	3.176649	1.227964	-0.138817
C	4.449461	1.015673	-0.939639
C	2.350311	2.471008	-0.535958
O	2.537432	3.073553	0.740015
C	3.362698	2.001966	1.182901
H	1.214581	-1.526723	-1.099963
H	2.695989	-1.002027	-1.921045
H	1.278059	0.069244	-1.875085
H	2.95593	-0.789	0.573796
H	1.484492	0.179184	0.66048
H	5.044191	1.940671	-0.987597
H	4.231198	0.710066	-1.974497
H	5.075769	0.232199	-0.482021
H	1.283993	2.284156	-0.761919
H	2.780311	3.075821	-1.356302
H	4.399195	2.325975	1.393644
H	2.962139	1.504752	2.085645
