17
-1665.64
C          1.05640       -0.05659        0.07606
C          2.56554        0.07694        0.00178
C          3.11831        1.19828        0.86856
C          4.49939        0.68581        1.20055
O          5.38463        0.94511        0.10964
C          4.25085       -0.80545        1.36270
O          3.18835       -1.14159        0.44904
H          0.71676       -0.89763       -0.53887
H          0.56111        0.85495       -0.27281
H          0.72818       -0.26606        1.10063
H          2.86408        0.22227       -1.04293
H          2.53200        1.30008        1.78945
H          3.11439        2.15654        0.34041
H          4.92954        1.14396        2.09438
H          5.18144        0.30707       -0.59850
H          5.12513       -1.41767        1.12471
H          3.90026       -1.04368        2.37264
