18

C	2.063966	-0.447547	-1.322535
O	2.307702	0.083641	-0.055334
C	3.049018	1.258976	-0.071333
C	2.400597	2.581407	-0.53234
C	3.158457	3.27474	0.616601
C	3.289466	1.904075	1.304417
N	4.44426	1.644463	2.112227
H	1.485093	-1.373652	-1.196984
H	3.003814	-0.691635	-1.857857
H	1.481083	0.244603	-1.962009
H	4.020585	1.106526	-0.592449
H	1.315989	2.549513	-0.342264
H	2.578545	2.928413	-1.560315
H	4.143522	3.643574	0.287616
H	2.654255	4.079693	1.169397
H	2.382335	1.712076	1.904029
H	5.294737	1.723395	1.557206
H	4.419477	0.695668	2.479957
