17
-1655.17
C          0.90621        0.22524        0.21535
N          2.33465       -0.07162        0.16436
C          3.07334        0.97579        0.03876
N          4.45953        1.02739       -0.03751
C          5.19202       -0.24258        0.03679
C          5.15150        2.23081       -0.13937
C          6.46880        2.45606       -0.19232
H          0.37269       -0.65110        0.59574
H          0.52198        0.44500       -0.78576
H          0.68020        1.06232        0.88508
H          2.61635        1.98201       -0.02501
H          4.53742       -1.11985        0.01557
H          5.77375       -0.28856        0.96400
H          5.87563       -0.34013       -0.81413
H          4.48965        3.09534       -0.17754
H          7.19805        1.65526       -0.15843
H          6.84917        3.46964       -0.27166
