12

N	1.711914	1.176601	-1.884442
C	2.60218	1.005936	-1.163077
C	3.664297	0.777639	-0.224685
N	4.871248	0.970234	-0.57969
N	5.775728	0.701451	0.456109
C	7.032235	0.169038	-0.086655
C	6.95446	1.570041	0.344635
H	3.39929	0.438243	0.789133
H	7.045852	-0.02566	-1.163415
H	7.499221	-0.593016	0.543044
H	7.36186	1.889826	1.30755
H	6.914555	2.335186	-0.436788
