16
-1539.6
C          2.43808       -0.92181       -0.81049
O          2.04904        0.33950       -0.28346
C          3.17295        1.19635       -0.00458
C          3.53061        2.18303       -1.08304
C          2.82820        2.65260        0.16118
C          3.54836        3.48459        1.16491
H          1.53639       -1.50497       -1.01443
H          3.05097       -1.46272       -0.08336
H          2.99163       -0.78978       -1.74492
H          3.97462        0.80222        0.61323
H          2.96048        2.15925       -2.00449
H          4.57749        2.42761       -1.21517
H          1.78463        2.93452        0.07838
H          4.60423        3.20664        1.25071
H          3.08541        3.37048        2.15017
H          3.49678        4.54135        0.88447
