18

C	1.740408	-0.140266	0.453843
C	2.614256	0.090803	-0.768831
C	2.101965	-0.526458	-2.040163
C	0.983255	-1.236595	-2.194349
C	2.847243	1.571944	-0.999638
C	3.979208	2.296581	-0.38202
N	4.007836	1.933042	-1.792313
H	2.188286	0.32771	1.34324
H	1.61369	-1.213038	0.661783
H	0.737514	0.294759	0.315786
H	3.61467	-0.344459	-0.585485
H	2.74103	-0.33433	-2.911038
H	0.311248	-1.457479	-1.359812
H	0.697926	-1.633513	-3.17208
H	1.922826	2.14665	-1.1565
H	4.685019	1.752402	0.25664
H	3.833058	3.345632	-0.100032
H	3.815111	2.740257	-2.38207
