18
-1713.57
C          1.07571        0.02372        0.14457
C          2.58628       -0.02044       -0.07714
N          2.88059       -0.70536       -1.33768
C          3.15241        1.39250       -0.11491
C          3.19987        2.15533        1.21779
O          4.59265        2.49496        1.01434
C          4.68255        1.52201       -0.05722
H          0.83526        0.50333        1.09932
H          0.65022       -0.98564        0.16325
H          0.56916        0.59271       -0.64406
H          3.04672       -0.59108        0.73796
H          2.36958       -0.26405       -2.10244
H          2.53098       -1.66292       -1.29402
H          2.71884        2.00327       -0.91951
H          3.07159        1.55962        2.12698
H          2.56592        3.04499        1.26635
H          5.14735        1.94432       -0.95232
H          5.23765        0.63567        0.26570
