10
-1088.49
O          2.62126       -0.80060        1.13857
C          2.20556       -0.03677        0.10187
O          1.17412       -0.29468       -0.50580
C          3.03944        1.19494       -0.18079
C          4.47926        1.03042        0.08645
C          5.65524        0.90828        0.29891
H          3.44584       -0.48953        1.55938
H          2.63524        2.01357        0.42389
H          2.90366        1.45324       -1.23709
H          6.70316        0.80766        0.47424
