12
-1332.68
C          0.86886        0.10206       -0.00629
C          2.36705        0.03822       -0.00661
C          2.94991       -1.33506       -0.01485
O          2.24601       -2.33719       -0.02088
C          3.13902        1.13799        0.00000
C          4.54502        1.13799        0.00000
N          5.69603        1.13799        0.00000
H          0.50315        1.13486       -0.00010
H          0.46287       -0.39681        0.88036
H          0.46293       -0.38615       -0.89883
H          4.05035       -1.41041       -0.01528
H          2.67105        2.11764        0.00587
