13
-1361.25
O          1.06840       -0.01742       -0.43491
C          2.42000        0.00000        0.00000
C          2.90202        1.36117        0.00000
C          3.29930        2.48307        0.00000
C          3.78132        3.84424        0.00000
C          2.65027        4.82321       -0.17498
O          2.58026        5.89039        0.42877
H          0.77129       -0.94051       -0.38200
H          3.00821       -0.62713       -0.67669
H          2.46661       -0.43346        1.00369
H          4.48156        4.00239       -0.82657
H          4.30113        4.07513        0.93534
H          1.92161        4.58256       -0.96958
