16

C	1.101686	-0.233305	-0.304207
C	2.573089	-0.19796	0.073269
C	3.146925	1.214386	0.058119
O	2.406135	2.091986	0.885249
C	4.607905	1.315678	0.406375
C	5.45194	0.315697	0.662827
H	0.688543	-1.250179	-0.228405
H	0.94866	0.114099	-1.338613
H	0.520712	0.429376	0.352972
H	3.1604	-0.831022	-0.612178
H	2.715854	-0.625235	1.082967
H	3.020508	1.625628	-0.961588
H	2.565283	1.821388	1.797304
H	4.963813	2.35171	0.470586
H	5.146239	-0.733634	0.616769
H	6.494878	0.511188	0.926175
