13

O	1.0048	-0.182631	0.021174
S	2.431172	-0.018132	-0.132331
O	3.039161	0.105291	-1.442473
C	3.135092	1.239064	0.943307
C	4.521	0.674083	1.188722
C	4.306132	-0.830294	1.412437
O	3.1592	-1.247923	0.676452
H	2.505604	1.27731	1.844443
H	3.106925	2.199589	0.413469
H	5.142639	0.844599	0.296894
H	5.018151	1.141555	2.050182
H	5.174012	-1.421644	1.085631
H	4.108982	-1.049327	2.474483
