17
-1552.49
C          1.20903       -0.18723        0.84043
N          2.63621       -0.03983        0.60170
C          2.97409        1.34679        0.25270
C          4.45267        1.45754       -0.14540
O          4.67317        0.72604       -1.35688
C          6.03534        0.78711       -1.75717
H          0.98675       -1.22744        1.09910
H          0.62132        0.07131       -0.04684
H          0.88269        0.43707        1.67948
H          2.91831       -0.63086       -0.18402
H          2.78214        2.00203        1.10939
H          2.35644        1.67759       -0.59098
H          5.09485        1.06227        0.65118
H          4.70425        2.51133       -0.31234
H          6.15122        0.20799       -2.67752
H          6.68211        0.35343       -0.98793
H          6.32924        1.82238       -1.95678
