14
-1422.61
C          1.13389       -0.91887       -0.17977
C          2.26864        0.05340        0.07708
N          1.77468        1.40438        0.21284
C          1.86992        2.34479       -0.78550
O          2.41661        2.20947       -1.86836
C          1.21923        3.67196       -0.44345
O          0.53343        3.79390        0.56283
H          1.51764       -1.93874       -0.27781
H          0.59421       -0.66300       -1.09871
H          0.41180       -0.90272        0.64470
H          2.99628        0.00454       -0.73825
H          2.77883       -0.20057        1.01020
H          1.24725        1.67235        1.04165
H          1.42868        4.48143       -1.15996
