13
-1368.52
O          1.17822       -0.54315       -0.40915
C          2.33076       -0.28150       -0.09379
C          2.87593        1.08006       -0.25368
C          4.14024        1.35497        0.09606
C          4.78707        2.66619       -0.01656
C          4.55735        3.68692        1.07014
O          5.83341        3.06522        0.88296
H          3.01508       -1.04004        0.32224
H          2.20198        1.82422       -0.66106
H          4.77269        0.56588        0.49928
H          4.87393        3.03260       -1.03539
H          3.99540        3.41016        1.95356
H          4.46150        4.72703        0.78415
