14
-1430.2
C          1.06417       -0.04572       -0.74207
N          2.50005       -0.08322       -0.74244
C          3.24071        0.34085        0.33715
O          2.79313        0.77060        1.38798
C          4.75205        0.23266        0.11836
C          5.62350        0.67518        1.25454
O          5.17611       -0.19045       -0.95273
H          0.70033       -0.46347       -1.68325
H          0.73227        0.99063       -0.63785
H          0.68712       -0.63186        0.10019
H          3.01466       -0.39913       -1.56080
H          5.38279        0.10152        2.15295
H          5.48130        1.74355        1.43465
H          6.67176        0.49706        0.99926
