17

C	2.105112	-0.193925	-0.048865
C	0.752047	-0.800182	0.192192
C	-0.391598	-1.439427	-0.544896
C	-1.560121	-0.505987	-0.233752
C	-1.443693	0.735731	0.282084
C	-0.122024	1.456436	0.542826
C	0.865615	0.634376	-0.237106
H	2.67055	-0.390959	-0.964988
H	2.731919	-0.098332	0.843131
H	0.569469	-0.862788	1.273604
H	-0.629313	-2.462876	-0.205438
H	-0.220101	-1.502487	-1.634917
H	-2.569317	-0.894781	-0.410978
H	-2.364528	1.289012	0.498493
H	0.100828	1.485835	1.624958
H	-0.195881	2.506607	0.209425
H	0.653105	0.73064	-1.310524
