18
-1671.43
N          1.23640       -0.25790       -0.48007
C          2.69252       -0.17962       -0.29815
C          3.11455        1.29318       -0.14838
O          2.32584        1.89278        0.88877
C          4.60086        1.42487        0.19446
C          5.02367        2.88134        0.36686
O          4.43426        3.45236        1.52735
H          0.96479       -1.24044       -0.54111
H          0.98515        0.15222       -1.38096
H          3.20647       -0.64926       -1.14314
H          2.94449       -0.73491        0.61220
H          2.89673        1.83661       -1.07567
H          1.45819        1.43580        0.82474
H          5.20204        0.96205       -0.59598
H          4.80069        0.89387        1.13350
H          4.73872        3.48280       -0.50226
H          6.10978        2.94552        0.48221
H          3.50360        3.13713        1.54751
