14
-1495.25
C          1.01668        0.03195        0.06679
C          2.49924       -0.01736       -0.01941
C          3.25865       -1.11677       -0.10966
C          4.65264       -0.65848       -0.16983
O          5.63019       -1.37322       -0.25604
N          4.62800        0.71055       -0.11046
C          3.30592        1.23831       -0.01205
H          0.57842       -0.97088        0.04047
H          0.60468        0.60153       -0.77190
H          0.70474        0.51198        0.99954
H          2.97077       -2.15216       -0.13732
H          5.48231        1.24906       -0.13678
H          3.10499        1.87647       -0.87626
H          3.20804        1.79988        0.92035
