15
-1446.43
C          0.97173        0.00329        0.00282
C          2.49418       -0.03318       -0.05910
N          2.96526        0.17652       -1.43365
C          3.09096       -1.25879        0.62023
O          3.34673       -0.85745        1.97512
N          3.53152        0.54759        1.98459
C          3.06007        0.99104        0.86897
H          0.60863       -0.10882        1.03148
H          0.53160       -0.80157       -0.59653
H          0.58062        0.95753       -0.37016
H          3.98544        0.20867       -1.45539
H          2.63388        1.07086       -1.79327
H          4.05035       -1.55880        0.18239
H          2.42299       -2.12567        0.61283
H          3.03300        2.06084        0.61659
