13

C	0.946106	0.14161	0.194317
C	2.408741	-0.134979	0.032112
C	2.921073	-1.364113	-0.074261
C	3.31125	1.080411	-0.031683
C	3.219943	1.92063	1.160989
N	3.128878	2.578341	2.108794
H	0.753312	0.704733	1.122857
H	0.360121	-0.786446	0.223564
H	0.569824	0.763981	-0.635642
H	2.277283	-2.247434	-0.052367
H	3.995564	-1.532698	-0.187943
H	3.038	1.707798	-0.899284
H	4.362058	0.783026	-0.169074
