14

N	1.3284	-0.375921	0.558739
C	2.340893	0.042504	-0.396153
C	2.791043	1.41164	-0.153818
C	3.114715	2.564804	0.033114
C	3.563236	3.93916	0.245653
N	3.038876	4.850845	-0.757578
H	1.005656	-1.312817	0.326175
H	0.517663	0.23656	0.491323
H	2.029691	-0.017067	-1.462964
H	3.209618	-0.633812	-0.303525
H	4.672706	3.91916	0.322697
H	3.204509	4.267713	1.23708
H	3.375706	4.580048	-1.679721
H	3.392479	5.789662	-0.584451
