19

C	0.973539	-0.126972	-0.078944
C	2.481976	-0.013786	0.073348
C	3.015765	1.428849	0.020948
C	2.479576	2.304815	1.157599
C	4.480301	1.434932	0.0076
C	5.693095	1.432852	0.001272
C	7.147966	1.431336	-0.00727
H	0.659396	-1.180883	-0.112118
H	0.628626	0.350208	-1.011097
H	0.433548	0.347455	0.754448
H	2.97883	-0.591391	-0.723084
H	2.805994	-0.470736	1.024767
H	2.6778	1.870667	-0.936557
H	2.758789	1.880007	2.13486
H	1.383293	2.386122	1.115687
H	2.897136	3.319986	1.100597
H	7.549311	2.456959	-0.011862
H	7.54257	0.915996	-0.897483
H	7.553228	0.919723	0.880298
