15

C	1.544304	-0.493468	0.788052
C	2.885112	-0.321628	0.136095
C	3.476286	-1.322148	-0.54483
C	3.561815	0.965507	0.246863
C	3.07766	2.048378	0.895952
C	3.759873	3.289114	0.984772
C	4.322842	4.362424	1.075589
H	0.813616	0.227522	0.387257
H	1.607822	-0.318459	1.874429
H	1.148749	-1.505552	0.627332
H	3.000285	-2.300256	-0.651106
H	4.454248	-1.187808	-1.014743
H	4.538648	1.045873	-0.240551
H	2.10231	1.999701	1.392531
H	4.82141	5.310658	1.154487
