13

C	1.082758	-0.126549	0.271195
C	2.489697	0.204126	-0.157074
C	3.206034	1.272447	0.685375
S	4.236075	-0.074077	1.301113
O	3.831209	-0.51942	2.615873
O	5.629975	0.013806	0.936973
O	3.392625	-0.895325	0.139207
H	0.72454	-1.016278	-0.265202
H	0.403313	0.711619	0.053188
H	1.059367	-0.339481	1.350549
H	2.552761	0.413291	-1.236158
H	2.623273	1.75907	1.477796
H	3.811665	1.992042	0.120694
