14
-1460.2
N          1.17214       -0.50060       -0.17597
C          2.53242       -0.60639       -0.17271
O          3.07909       -1.69511       -0.29293
C          3.25534        0.70895       -0.00891
C          4.76693        0.51937       -0.03007
C          5.46126        1.80743        0.12977
C          6.03249        2.85479        0.25992
H          0.68411        0.37981       -0.09133
H          0.63345       -1.35008       -0.28599
H          2.94123        1.16031        0.94029
H          2.94413        1.37896       -0.81982
H          5.07423        0.05263       -0.97368
H          5.07211       -0.16289        0.77244
H          6.54465        3.78301        0.37538
