19
-1902.82
C          0.83052       -0.12791        0.13510
C          2.31646        0.00102        0.24307
C          3.07839        1.08128       -0.02602
C          2.49465        2.41923       -0.41117
C          4.55082        1.05979        0.11511
C          5.35493        0.01652       -0.61906
C          5.41131        1.44722       -1.06112
H          0.58460       -1.03022       -0.43402
H          0.35710        0.71380       -0.37458
H          0.39159       -0.22477        1.13237
H          2.82078       -0.91007        0.56271
H          1.46656        2.54891       -0.06256
H          2.51386        2.54193       -1.49861
H          3.07595        3.23320        0.03604
H          4.90337        1.35043        1.10097
H          4.84380       -0.68877       -1.26535
H          6.22249       -0.39652       -0.11732
H          6.31829        2.00629       -0.86017
H          4.94018        1.69800       -2.00500
