17

C	0.647495	-0.291759	-0.112252
C	2.172737	-0.248639	-0.079118
N	2.819365	-1.082661	-1.082566
C	2.704598	1.171833	-0.218212
C	2.384008	2.064091	0.96816
N	2.609898	3.389263	0.762837
O	1.974121	1.63502	2.028523
H	0.214321	0.311686	0.698588
H	0.286248	-1.325693	0.005982
H	0.267164	0.087359	-1.077282
H	2.499416	-0.605942	0.912019
H	2.472518	-0.832261	-2.009419
H	2.548338	-2.055043	-0.945621
H	2.325127	1.636824	-1.146786
H	3.801763	1.120317	-0.323498
H	2.985813	3.745746	-0.102979
H	2.466952	4.023818	1.537383
