8
-831.06
C          0.97867       -0.01411        0.02379
C          2.31383        0.00706       -0.02774
C          3.05106        1.28607       -0.01284
O          4.27418        1.31615       -0.05968
H          0.44566       -0.96038        0.01228
H          0.38104        0.89119        0.07813
H          2.91131       -0.89557       -0.08199
H          2.44100        2.20266        0.04239
