20

C	1.017865	-0.252492	-0.412291
C	2.520489	-0.114723	-0.598657
C	3.189254	0.743447	0.468772
C	4.677523	0.877026	0.27785
C	5.587395	1.195936	1.435234
C	5.631033	-0.163427	0.813527
N	6.809335	-0.599839	0.127783
H	0.564698	-0.876768	-1.197409
H	0.519934	0.730122	-0.439259
H	0.777288	-0.713982	0.55941
H	2.733834	0.316689	-1.593011
H	2.991687	-1.113454	-0.60002
H	2.991056	0.308846	1.465586
H	2.721576	1.74502	0.483913
H	4.977107	1.312576	-0.684316
H	5.145164	1.303729	2.42991
H	6.436799	1.862718	1.255022
H	5.161897	-0.963821	1.401641
H	7.341797	0.196016	-0.215873
H	6.559399	-1.157321	-0.687434
