19

C	2.256354	4.510471	0.291059
C	3.686518	4.033149	0.231711
O	3.680036	2.634693	0.082573
C	4.862568	1.995415	0.005113
C	6.092999	2.525755	0.058293
C	7.368819	1.74032	-0.036459
C	7.219532	0.235636	-0.188845
H	2.220266	5.603465	0.408709
H	1.730846	4.050184	1.140623
H	1.719251	4.240185	-0.630305
H	4.235492	4.311743	1.153099
H	4.225687	4.499404	-0.616444
H	4.699013	0.920505	-0.115133
H	6.209799	3.606986	0.179793
H	7.982339	1.955366	0.858441
H	7.963853	2.134069	-0.881862
H	6.675838	-0.204321	0.662464
H	8.203238	-0.253083	-0.242322
H	6.669873	-0.025882	-1.107467
