19
-1846.81
C          2.24257        4.54904        0.29894
C          3.67583        4.05366        0.24695
O          3.65000        2.63928        0.05771
C          4.85075        1.98959       -0.02001
C          6.09174        2.49738        0.03258
C          7.38104        1.72355       -0.05666
C          7.26776        0.20921       -0.16797
H          2.20905        5.62961        0.46579
H          1.68931        4.04944        1.10147
H          1.72201        4.32027       -0.63716
H          4.17748        4.29755        1.19070
H          4.19521        4.53874       -0.58749
H          4.65109        0.93000       -0.14127
H          6.23319        3.56801        0.14958
H          7.97868        1.96160        0.83133
H          7.94082        2.09704       -0.92217
H          6.75320       -0.21629        0.70018
H          8.26605       -0.23840       -0.21636
H          6.72654       -0.08522       -1.07310
