17

C	1.226737	-0.386018	0.014373
C	2.729769	-0.164927	0.023628
C	3.105766	1.308856	0.146326
O	2.541145	1.906367	1.283783
C	4.628701	1.536116	0.115643
C	5.287795	0.979628	1.290716
C	5.782319	0.509626	2.292901
H	0.975686	-1.456712	-0.009749
H	0.757376	0.089017	-0.862359
H	0.770056	0.058245	0.910747
H	3.187681	-0.574372	-0.893672
H	3.191334	-0.712811	0.864978
H	2.677983	1.852573	-0.714205
H	2.980008	1.522453	2.054919
H	4.819675	2.621046	0.078543
H	5.060742	1.097021	-0.799062
H	6.234587	0.098043	3.176338
