12
-1221.98
C          1.10689       -0.04089        0.08612
C          2.43243       -0.00197       -0.07700
C          3.30390        1.19469        0.02306
O          4.48530        0.79971       -0.66671
C          4.47177       -0.62681       -0.61210
O          3.14289       -1.12488       -0.44549
H          0.56333       -0.97159       -0.04189
H          0.53972        0.84703        0.34319
H          3.56033        1.41968        1.06272
H          2.88281        2.08010       -0.46015
H          4.89624       -1.02513       -1.53883
H          5.08889       -0.96017        0.23052
