15

O	1.04945	0.017072	-0.205841
C	2.421664	0.056497	-0.033902
C	2.967708	1.157308	0.86615
C	4.383984	0.658768	1.187934
C	4.227049	-0.855295	1.382366
C	2.957251	-1.200303	0.634008
O	2.369275	-2.252302	0.60851
H	0.808787	-0.922244	-0.164258
H	2.958008	0.119762	-1.011753
H	2.343988	1.196717	1.775577
H	2.94816	2.15276	0.401217
H	5.0509	0.863328	0.33396
H	4.822663	1.16101	2.061255
H	5.074181	-1.465707	1.03406
H	4.060071	-1.12877	2.437718
