17
-1659.04
C          1.91302       -0.23679        1.42629
C          2.29687        0.22371        0.02728
N          2.89590        1.57598        0.06395
C          2.08057        2.70616        0.04001
C          0.74817        2.81095       -0.02749
C          4.28071        1.62924        0.17900
N          5.09463        2.62601        0.20087
H          1.51606       -1.25573        1.39313
H          1.14648        0.41066        1.86214
H          2.77818       -0.22814        2.09589
H          1.42207        0.19926       -0.63389
H          3.00319       -0.49538       -0.40803
H          2.63695        3.63774        0.09322
H          0.09030        1.95226       -0.07524
H          0.27809        3.78956       -0.03022
H          4.73334        0.62537        0.26405
H          4.58960        3.50572        0.10681
