15

C	1.022603	-0.069841	-0.022602
N	2.460515	0.029656	-0.005539
C	2.954937	1.380785	-0.104674
C	4.467423	1.418891	-0.015914
C	5.045034	2.802513	0.027495
O	4.394602	3.813647	0.028336
H	0.715582	-1.125714	0.017195
H	0.535807	0.394469	-0.909294
H	0.602196	0.424916	0.868791
H	2.857972	-0.541375	-0.74831
H	2.538816	1.973842	0.728048
H	2.62858	1.91269	-1.0272
H	4.943154	0.88722	-0.862955
H	4.813217	0.874029	0.882673
H	6.166742	2.843244	0.066759
