20

C	1.133296	0.288205	0.094461
C	2.630027	-0.044339	-0.001755
C	3.029031	-0.903567	1.196541
N	2.961235	-0.803368	-1.208439
C	3.399957	1.270866	-0.082077
C	3.925083	2.008163	1.113825
C	4.875214	1.36796	0.140651
H	0.806007	0.859083	-0.789832
H	0.909062	0.893536	0.987489
H	0.530043	-0.632947	0.145034
H	2.76853	-0.423228	2.150556
H	4.103936	-1.131151	1.184528
H	2.490977	-1.863601	1.157023
H	2.744039	-0.24762	-2.035301
H	2.371542	-1.632941	-1.266185
H	3.011846	1.914237	-0.883073
H	3.821402	1.545024	2.098529
H	3.83984	3.098449	1.126831
H	5.457103	2.009856	-0.526298
H	5.403132	0.465944	0.459161
