19
-1764.28
C          2.18870       -0.37528       -1.34541
N          2.34410        0.10494        0.03046
C          2.93746       -0.95446        0.85152
C          3.23858        1.28126        0.03516
C          2.51119        2.53703       -0.50802
N          3.10084        3.31342        0.61857
C          3.15648        2.03883        1.38595
H          1.70876        0.38199       -1.97505
H          1.53718       -1.25655       -1.37202
H          3.14842       -0.64313       -1.80403
H          2.29513       -1.84274        0.85235
H          3.02784       -0.63839        1.89650
H          3.93184       -1.24908        0.49587
H          4.25531        1.13354       -0.34988
H          1.41424        2.51680       -0.47998
H          2.82683        2.87154       -1.50150
H          4.02368        3.69030        0.40287
H          4.03246        1.93942        2.03509
H          2.25575        1.86633        1.98798
