19
-1844.56
O          2.48725        0.52296        2.57138
C          3.53235        1.06070        1.76872
C          2.91176        1.79213        0.58734
C          3.94598        2.34521       -0.39034
C          4.82524        3.39335        0.22626
C          6.23339        3.05989        0.64895
C          5.99746        3.93176       -0.55183
H          2.90816        0.09094        3.33427
H          4.16933        0.23678        1.43131
H          4.12402        1.73926        2.39093
H          2.27010        2.60049        0.95939
H          2.24276        1.10601        0.05284
H          3.41446        2.79799       -1.23707
H          4.54536        1.52226       -0.80028
H          4.26492        4.11296        0.81336
H          6.61272        2.05905        0.47502
H          6.61809        3.52786        1.54791
H          6.22036        4.98951       -0.46308
H          6.20594        3.51791       -1.53211
