18

C	1.021669	-0.023484	-0.061547
C	2.532718	-0.004366	0.063213
C	3.102685	1.134766	0.903171
C	4.526293	0.656025	1.185507
O	5.408543	0.980065	0.136343
C	4.343276	-0.864957	1.357611
N	3.037069	-1.159061	0.783229
H	0.681736	-0.898408	-0.638298
H	0.653432	0.877828	-0.575824
H	0.562373	-0.077607	0.937191
H	2.95504	0.081483	-0.969815
H	2.527407	1.210011	1.840338
H	3.095387	2.113404	0.402305
H	4.957744	1.121315	2.083812
H	5.02598	0.653593	-0.685681
H	5.18726	-1.368943	0.851804
H	4.383775	-1.160064	2.4216
H	2.992364	-2.02688	0.261061
