18
-1774.35
C          1.09750        0.04888        0.35938
N          2.51752        0.00205        0.00042
C          2.84105       -1.28175       -0.66183
C          2.61721       -1.02101       -2.11931
C          3.66684       -0.38323       -2.99112
C          2.61777        0.45473       -2.30933
C          2.84207        1.07594       -0.96549
H          0.86132        0.99782        0.85407
H          0.86052       -0.74369        1.07815
H          0.43268       -0.06202       -0.50509
H          2.23702       -2.11693       -0.29021
H          3.89321       -1.52880       -0.47754
H          1.82342       -1.60468       -2.56172
H          4.68625       -0.33701       -2.62584
H          3.58571       -0.52162       -4.06296
H          1.82444        0.90784       -2.88520
H          3.89436        1.36087       -0.84969
H          2.23842        1.97837       -0.81787
