15
-1522.87
O          2.49487       -1.25437        0.88284
C          2.35258       -0.25438       -0.12261
C          3.37631        0.85765        0.10241
C          4.77993        0.43144       -0.24271
C          5.72021        0.13048        0.66515
C          5.14699        0.37018       -1.68091
O          4.35075        0.63371       -2.57436
H          1.84284       -1.94764        0.68346
H          1.34081        0.15533       -0.04263
H          2.46102       -0.72464       -1.10490
H          3.33673        1.17935        1.15045
H          3.10750        1.73077       -0.50345
H          5.48970        0.15666        1.72758
H          6.72736       -0.16940        0.39186
H          6.18532        0.07302       -1.90240
