17

C	1.159855	-0.146227	-0.080058
C	2.615977	0.093542	-0.34339
O	3.01189	0.173596	-1.703144
C	3.126596	1.342707	-0.91669
C	4.511195	1.844926	-0.661914
C	5.675241	0.910369	-0.792998
C	5.461765	1.98627	-1.816126
H	0.911327	0.081584	0.968149
H	0.899181	-1.199332	-0.268532
H	0.537739	0.480987	-0.734438
H	3.315229	-0.478089	0.285835
H	2.389904	2.123596	-1.162478
H	4.56308	2.611317	0.119885
H	5.449241	-0.113813	-1.102884
H	6.503615	1.012016	-0.086901
H	6.139253	2.844528	-1.828297
H	5.100541	1.673254	-2.799799
