11
-1191.46
O          1.07785       -0.02222        0.45165
C          2.26276       -0.04270        0.18828
C          3.31518        1.03664       -0.08481
N          4.24518       -0.05339       -0.43047
C          3.32953       -1.12992        0.03639
C          3.01934       -2.10211       -0.98605
N          2.80905       -2.87183       -1.83033
H          3.59956        1.60642        0.80356
H          3.07059        1.71122       -0.90808
H          4.45988       -0.09853       -1.43024
H          3.62762       -1.56397        0.99654
