17
-1777.55
C          0.65336       -0.09561        0.16360
C          2.05224        0.38392       -0.09336
C          0.89199        1.34735       -0.22040
C          0.71560        2.46694        0.78591
C          0.31132        3.65179       -0.04503
C          0.18400        3.32860       -1.34010
C          0.48323        1.87556       -1.58090
H          0.37595       -0.31949        1.18749
H          0.20379       -0.75800       -0.56758
H          2.54633        0.04720       -0.99790
H          2.71852        0.48521        0.75616
H          1.64619        2.67872        1.32190
H         -0.07220        2.23027        1.50875
H          0.14818        4.63869        0.36479
H         -0.09647        4.01678       -2.12540
H         -0.41205        1.36566       -1.95165
H          1.28919        1.76995       -2.31390
