13
-1391.39
O          0.88093        0.21089        0.96934
C          1.84522        0.12832        0.20944
C          2.96013        1.18090        0.04919
C          2.51480        2.64762       -0.23614
C          3.60596        3.07599        0.76469
O          4.21128        4.10607        0.96532
C          3.68250        1.65212        1.34848
H          1.95779       -0.76246       -0.43086
H          3.68954        0.84081       -0.70168
H          1.50546        2.91007        0.09345
H          2.67733        2.99126       -1.25981
H          4.69637        1.26942        1.48090
H          3.11313        1.53902        2.27537
