16
-1565.58
N          0.98034       -0.10676       -0.01970
C          2.44656       -0.01990        0.04919
C          2.97739        1.43282        0.00000
C          2.44258        2.27088        1.17623
O          1.02867        2.44584        1.10361
C          4.42139        1.43282        0.00000
C          5.61155        1.43282        0.00000
H          0.70998       -1.09116        0.03786
H          0.67542        0.19926       -0.94734
H          2.86750       -0.60093       -0.78086
H          2.77712       -0.50678        0.97523
H          2.61433        1.88610       -0.93221
H          2.89243        3.27019        1.17689
H          2.68056        1.80415        2.13940
H          0.65889        1.55196        0.92777
H          6.67770        1.43716       -0.00047
