20

C	0.929112	-0.029538	0.211618
C	2.423784	0.090342	-0.03088
C	3.116067	1.17494	0.809448
C	4.526166	0.632815	0.963127
N	4.284218	-0.77193	1.191297
C	5.431545	-1.625469	1.245414
C	3.225756	-1.191525	0.293578
H	0.475952	-0.807234	-0.423144
H	0.410143	0.918258	-0.002625
H	0.726777	-0.293632	1.262516
H	2.585593	0.332448	-1.095118
H	2.643422	1.241213	1.803052
H	3.072711	2.170854	0.343817
H	5.123203	0.823919	0.037511
H	5.083062	1.079087	1.803966
H	5.135141	-2.647075	1.53259
H	6.143167	-1.262618	2.004374
H	5.977194	-1.695886	0.274682
H	3.62729	-1.639403	-0.642682
H	2.600048	-1.968464	0.7704
