16
-1577.99
O          3.01679        2.83797       -1.36566
C          2.35945        2.19485       -0.55416
C          2.92334        1.10408        0.31787
C          4.40428        0.84928        0.10245
C          5.38900        1.90641        0.64609
N          6.26681        0.80005        1.09517
C          5.08836       -0.09446        1.11205
H          1.28176        2.39288       -0.42101
H          2.35405        0.19309        0.10305
H          2.71975        1.38439        1.35758
H          4.62408        0.56366       -0.93688
H          5.00939        2.51663        1.47420
H          5.83419        2.56890       -0.10173
H          6.95823        0.53805        0.39075
H          5.27902       -1.11040        0.75389
H          4.60772       -0.15484        2.09569
