18

C	0.982416	-0.002184	0.03183
C	2.43695	0.006893	0.00975
C	3.649564	0.010066	-0.009315
C	5.106228	0.034654	-0.032766
C	5.721391	1.442358	0.002585
C	5.314137	2.211022	1.256712
N	7.157559	1.304557	-0.178714
H	0.577681	1.020782	0.084982
H	0.598258	-0.557325	0.902516
H	0.570728	-0.475451	-0.873883
H	5.482187	-0.472348	-0.936797
H	5.496027	-0.544135	0.826479
H	5.333094	1.98389	-0.878674
H	5.686605	1.697553	2.159949
H	4.220049	2.297106	1.34369
H	5.740222	3.226136	1.247439
H	7.564404	0.861507	0.645886
H	7.59178	2.22334	-0.241389
