14

N	1.307871	-0.310365	0.611634
C	2.325791	0.030515	-0.36572
C	2.742282	1.426598	-0.259837
C	3.059911	2.595673	-0.205747
C	3.445404	3.980529	-0.082799
C	4.341849	4.624551	-1.056447
O	2.965507	4.896479	-1.052854
H	1.03965	-1.285973	0.502349
H	0.469445	0.24357	0.447782
H	2.039503	-0.145616	-1.426548
H	3.209794	-0.60784	-0.188977
H	3.444424	4.368359	0.946001
H	4.714928	4.034026	-1.903343
H	4.998802	5.438445	-0.720294
