14

C	0.883842	-0.023286	-0.002995
C	2.37522	-0.003227	-0.004048
C	3.221361	1.087268	-0.001453
C	2.797271	2.523083	0.003621
C	4.576943	0.639494	-0.004731
N	4.791769	-0.653068	-0.009382
S	3.332083	-1.434541	-0.009916
H	0.484664	1.000027	0.010689
H	0.485524	-0.551977	0.877466
H	0.484221	-0.528484	-0.89665
H	3.672337	3.187909	0.010787
H	2.189597	2.766492	0.889889
H	2.19765	2.775283	-0.885725
H	5.440479	1.314257	-0.003522
