12

C	0.963021	-0.035849	0.024162
C	2.500274	-0.007213	-0.014043
C	3.024519	-0.765332	-1.156123
C	3.432412	-1.398338	-2.103172
C	3.014729	1.366973	-0.00828
C	3.417258	2.507913	0.00264
H	0.596871	0.50248	0.90986
H	0.605221	-1.074197	0.063705
H	0.54941	0.443928	-0.873867
H	2.875458	-0.498913	0.903449
H	3.798782	-1.955202	-2.945683
H	3.780445	3.518939	0.009801
