12

O	2.761144	-0.07763	1.121305
C	3.015812	0.948919	1.686049
C	4.290734	1.762626	1.464655
O	4.380139	2.878315	1.924895
N	5.273301	1.103622	0.787013
C	6.179611	1.627344	-0.183579
C	5.252692	0.495294	-0.508694
H	2.32295	1.447418	2.408672
H	7.242358	1.424695	-0.012308
H	5.953826	2.620711	-0.58865
H	4.392447	0.702454	-1.154398
H	5.637644	-0.527659	-0.56887
