14
-1427.51
C          1.02775       -0.06182        0.05594
C          2.53308       -0.11578       -0.04746
N          3.10720       -1.38351       -0.12923
C          3.24591        1.02575       -0.04013
C          4.71927        1.12924       -0.05060
O          5.35293       -0.01762        0.26594
O          5.29440        2.17817       -0.28955
H          0.65093        0.96455        0.11819
H          0.69046       -0.59638        0.95028
H          0.57233       -0.53180       -0.82212
H          2.39478       -2.11613       -0.05264
H          3.54416       -1.50948       -1.05166
H          2.75551        1.99400       -0.00891
H          4.69454       -0.72762        0.45952
