15

C	1.011203	0.229479	0.168603
C	2.457652	0.002679	-0.024038
C	3.203064	-1.098632	-0.19171
C	2.885822	-2.539577	-0.257167
O	4.539093	-0.745367	-0.243685
C	4.523765	0.647003	-0.43009
O	3.282823	1.110456	0.039531
H	0.461312	-0.720063	0.148828
H	0.602033	0.890023	-0.613089
H	0.825759	0.72038	1.138518
H	3.407439	-3.084547	0.546732
H	3.216175	-2.977588	-1.213314
H	1.806545	-2.708655	-0.148602
H	4.623511	0.880522	-1.515645
H	5.343495	1.115977	0.135319
