14
-1492.4
C          1.00209       -0.05413        0.00306
C          2.52000        0.00000        0.00000
C          3.00202        1.36117        0.00000
C          3.39930        2.48307        0.00000
C          3.88132        3.84424        0.00000
C          3.29840        5.16536        0.00000
N          2.83375        6.21841        0.00000
H          0.65740       -1.09393        0.00268
H          0.58476        0.44181       -0.88124
H          0.58842        0.43996        0.89010
H          2.89561       -0.53278       -0.88082
H          2.89921       -0.53409        0.87847
H          4.57161        3.87104       -0.85952
H          4.57161        3.87104        0.85952
