14
-1480.73
O          1.17381       -0.02969       -0.71309
C          2.29225        0.09929       -0.23118
N          2.94324        1.28223        0.01812
C          4.28094        1.38295        0.59612
C          4.55892        2.88786        0.67471
C          3.30315        3.48421        0.11283
C          2.43752        2.52882       -0.23613
H          2.89896       -0.77566        0.05668
H          4.99347        0.85893       -0.05033
H          4.28503        0.90458        1.58167
H          5.43158        3.16367        0.07504
H          4.72300        3.20929        1.70766
H          3.12729        4.54476        0.00684
H          1.45141        2.65145       -0.66780
