15
-1622.97
C          1.00000        0.00000        0.00000
C          2.19016        0.00000        0.00000
C          3.63416        0.00000        0.00000
C          4.19182       -1.21959       -0.76140
C          4.51395       -0.66782       -2.11509
C          4.51480        0.66924       -2.11504
C          4.19197        1.21931       -0.75919
H         -0.06568        0.00000       -0.00414
H          3.99263       -0.00069        1.03610
H          3.47693       -2.04615       -0.82545
H          5.11172       -1.58773       -0.29464
H          4.73718       -1.28476       -2.97500
H          4.73853        1.28748       -2.97349
H          5.11320        1.58724       -0.29258
H          3.47804        2.04745       -0.82323
