21

C	0.971476	-0.052871	-0.0358
C	2.488322	0.005545	0.035078
C	3.041979	1.42239	-0.00029
C	4.565688	1.481899	-0.027619
O	5.088686	0.761114	-1.124856
C	5.096282	2.912472	-0.000688
C	6.613527	2.986621	0.016758
H	0.602544	-1.089212	-0.006363
H	0.59627	0.405561	-0.965656
H	0.50681	0.48906	0.804188
H	2.935556	-0.56276	-0.796662
H	2.840647	-0.493127	0.955727
H	2.67248	1.997029	0.867717
H	2.654557	1.952035	-0.893373
H	4.951972	0.950521	0.861834
H	4.765047	1.184261	-1.929196
H	4.67223	3.433679	0.874634
H	4.699477	3.445249	-0.886268
H	7.021687	2.53481	0.935293
H	6.972028	4.025314	-0.03376
H	7.034675	2.430812	-0.833665
