13
-1317.18
C          2.90426       -1.11216        0.47039
N          2.30626        0.12218        0.00831
C          3.02287        1.26261       -0.00362
C          2.47343        2.50683       -0.21917
S          3.70597        3.70037       -0.16369
C          4.85150        2.45954        0.13736
N          4.37962        1.23369        0.20210
H          2.19514       -1.93535        0.33452
H          3.15176       -1.05235        1.53554
H          3.80801       -1.35771       -0.09724
H          1.29569        0.15747        0.07361
H          1.44356        2.76981       -0.40568
H          5.90277        2.67976        0.26686
