15

C	0.884527	0.782116	0.113672
C	2.184556	0.582593	-0.092377
O	3.116666	1.501341	0.254644
C	4.418817	1.244824	0.015653
C	5.383213	2.121648	0.337172
C	6.786702	1.868468	0.087618
C	7.784279	2.713548	0.389874
H	0.168471	0.015676	-0.181822
H	0.521748	1.703619	0.573049
H	2.578752	-0.332703	-0.553007
H	4.638816	0.278218	-0.456599
H	5.090368	3.06652	0.805755
H	7.033251	0.909399	-0.385328
H	7.586846	3.681126	0.86138
H	8.825657	2.465596	0.172934
