12

N	1.189554	-0.075225	-0.628079
C	2.391661	-0.054083	0.010815
O	2.866253	-1.016399	0.570395
C	3.091021	1.290436	0.008708
C	2.407796	2.446065	0.101181
C	4.517343	1.246597	-0.011584
C	5.729004	1.204032	-0.032909
H	0.928802	0.650659	-1.279433
H	0.713005	-0.966481	-0.681694
H	1.316514	2.449972	0.16144
H	2.925997	3.405735	0.156975
H	6.802459	1.155942	-0.048515
