18
-1735.84
N          0.99489        0.03173        0.15515
C          2.45641        0.01366        0.02643
C          2.92707       -1.32588       -0.54745
C          2.61374       -1.44261       -2.03420
O          3.17937       -0.34497       -2.75330
C          2.61637        0.90012       -2.33617
C          2.92971        1.16326       -0.86833
H          0.70083        0.90850        0.58621
H          0.69947       -0.70681        0.79407
H          2.87954        0.14253        1.02983
H          2.49024       -2.16831        0.00095
H          4.01499       -1.38727       -0.41496
H          3.05606       -2.36120       -2.43314
H          1.53498       -1.49025       -2.22321
H          3.06071        1.68652       -2.95437
H          1.53781        0.90079       -2.53125
H          4.01788        1.25395       -0.75505
H          2.49479        2.11817       -0.55104
