16

C	2.039431	-1.562287	0.301037
C	3.536498	-1.34762	0.391219
N	3.879111	-0.502267	1.523814
C	5.285775	-0.202599	1.707641
C	5.471262	1.196922	2.299308
O	4.37627	1.938983	2.194337
O	6.505739	1.579105	2.768839
H	1.784299	-2.178102	-0.573792
H	1.509866	-0.601653	0.216799
H	1.655939	-2.082757	1.194086
H	3.899123	-0.846171	-0.522189
H	4.055503	-2.327174	0.432882
H	3.488987	-0.896089	2.379163
H	5.784766	-0.186392	0.724655
H	5.847178	-0.921819	2.32907
H	3.711934	1.3223	1.799541
