14

C	0.931818	0.043435	-0.008447
C	2.423646	-0.003098	-9.6e-05
C	3.27824	1.074236	0.004709
N	4.572599	0.594505	0.011232
C	4.547854	-0.762086	0.010474
O	5.727121	-1.413421	0.016342
C	3.235655	-1.184712	0.003453
H	0.565712	1.080315	-0.00454
H	0.503784	-0.46393	0.871937
H	0.513953	-0.453543	-0.89963
H	3.070272	2.141662	0.004186
H	5.419821	1.143632	0.016415
H	5.552097	-2.359352	0.015032
H	2.891648	-2.217764	0.001124
