18
-1751.18
C          1.06576        0.09860       -0.11179
C          2.55565        0.07334       -0.06565
C          3.33763       -0.62547       -1.14781
C          3.43203        0.88155       -1.01118
C          2.81291        1.72597       -2.09503
C          4.70260        1.46188       -0.44367
H          0.68746        0.95235        0.45875
H          0.66563       -0.81452        0.34066
H          0.66923        0.16268       -1.12930
H          2.90065       -0.05476        0.95587
H          2.79712       -1.03823       -1.99294
H          4.18755       -1.22814       -0.84717
H          1.99665        1.21426       -2.61422
H          3.56307        1.98409       -2.85065
H          2.41947        2.65628       -1.67231
H          5.12507        0.83118        0.34689
H          4.51070        2.45173       -0.01700
H          5.45929        1.56461       -1.22857
