17
-1714.64
O          2.79664        1.80780       -1.60262
C          2.29257        1.57248       -0.51044
C          3.01094        0.91215        0.63747
C          4.46366        0.56698        0.35297
C          5.47779        1.74299        0.31297
C          6.48855        0.79911        0.99472
C          5.27865        0.02540        1.55703
H          1.23970        1.83933       -0.31084
H          2.45460       -0.00066        0.88026
H          2.93204        1.58524        1.49952
H          4.55565       -0.09128       -0.52272
H          5.19932        2.60608        0.93016
H          5.75853        2.09484       -0.68292
H          7.09465        0.21880        0.29056
H          7.14519        1.26004        1.73686
H          5.39228       -1.06080        1.60214
H          4.94347        0.38868        2.53628
