15

C	0.956599	-0.005849	0.030055
C	2.40886	0.02296	0.00714
C	3.62093	0.047699	-0.027247
C	5.063829	0.077994	-0.021188
O	5.751756	-0.526336	-1.107068
C	5.839234	0.875128	-0.989477
C	7.182148	1.451246	-0.65621
H	0.536665	1.011807	0.057761
H	0.581733	-0.549823	0.911384
H	0.560741	-0.507415	-0.867131
H	5.524598	-0.106017	0.960548
H	5.255148	1.42389	-1.743435
H	7.677144	0.857676	0.126018
H	7.084245	2.490387	-0.306598
H	7.82965	1.451133	-1.547073
