13
-1264.86
C          2.03794        0.44780       -1.50359
O          2.69616        1.65616       -1.12862
N          3.27432        1.42499        0.12634
C          4.61635        1.67365        0.14658
N          5.45450        1.69499       -0.82546
C          5.24509        1.94888        1.40958
C          5.77195        2.18214        2.46385
H          1.62193        0.58385       -2.50558
H          1.21852        0.22914       -0.81141
H          2.74652       -0.38663       -1.53223
H          2.75287        1.83770        0.89588
H          4.90812        1.50486       -1.67247
H          6.26024        2.39139        3.38746
