14
-1390.28
C          0.99140       -0.01244        0.00107
C          2.50466        0.00836        0.02730
C          3.08908        1.08058        0.92362
O          4.40063        0.61668        1.27419
N          4.32681       -0.79673        1.19140
C          3.12220       -1.19770        0.66022
O          2.68281       -2.33341        0.66205
H          0.62626       -0.82688       -0.63379
H          0.59627        0.93010       -0.39111
H          0.57474       -0.16900        1.00225
H          2.90735        0.08983       -0.98955
H          2.51713        1.22087        1.84811
H          3.17136        2.04289        0.40982
H          4.84522       -1.36502        1.84904
