12

O	2.594217	-1.164249	-0.420454
C	2.136992	-0.065852	-0.247908
C	2.960937	1.164704	0.015832
C	4.462159	0.911463	0.072503
C	4.900999	0.197159	1.325733
O	5.834765	0.537847	2.00072
H	1.029882	0.108505	-0.287462
H	2.579751	1.636766	0.940722
H	2.713337	1.888274	-0.782456
H	5.037856	1.84473	-0.001768
H	4.741083	0.263385	-0.777767
H	4.291522	-0.703902	1.595014
