17

C	0.978917	-0.296262	0.46028
C	2.374056	0.045106	0.010404
O	2.865759	1.266475	0.570801
C	4.102751	0.654686	0.915309
C	3.561881	-0.751661	0.601443
C	4.338728	-1.645809	-0.295727
C	4.62212	-2.926282	-0.05
H	0.672124	-1.271537	0.051725
H	0.265539	0.465403	0.110055
H	0.928627	-0.336724	1.559086
H	2.419592	0.078493	-1.097883
H	4.929016	0.969289	0.248573
H	4.399701	0.851313	1.959264
H	3.259236	-1.285547	1.516095
H	4.689485	-1.191329	-1.232056
H	4.291391	-3.415389	0.872239
H	5.193108	-3.532805	-0.758026
