16

N	1.041339	0.03262	0.242515
C	2.464821	-0.10307	-0.011241
C	2.804118	-1.532794	-0.481024
C	2.71866	-1.517029	-2.016896
C	3.048286	-0.082358	-2.384458
O	1.952324	0.801401	-2.247085
C	2.893851	0.763105	-1.195218
H	0.741529	1.000693	0.159429
H	0.817427	-0.274028	1.185594
H	3.096565	0.168214	0.859883
H	2.143531	-2.278255	-0.012986
H	3.838824	-1.76891	-0.182127
H	3.407989	-2.235495	-2.485067
H	1.701185	-1.745565	-2.368927
H	3.74792	0.15644	-3.195717
H	3.462029	1.687921	-1.030406
