14
-1462.2
C          1.00100       -0.05423        0.00309
C          2.52000        0.00000        0.00000
C          3.00202        1.36117        0.00000
C          3.39930        2.48307        0.00000
C          3.94528        3.81741        0.00000
N          5.30243        3.89743        0.00000
O          3.21866        4.79944        0.00000
H          0.65766       -1.09366        0.00240
H          0.58496        0.44184       -0.88073
H          0.58869        0.43942        0.89000
H          2.89564       -0.53272       -0.88084
H          2.89931       -0.53410        0.87843
H          5.88588        3.07337        0.00000
H          5.72835        4.81297        0.00000
