17

C	2.05217	-0.655685	1.003482
C	2.474991	0.210462	-0.170745
N	2.821836	1.552321	0.219565
C	4.044935	1.825324	0.959038
C	4.172297	3.351683	0.768453
N	3.317306	3.691003	-0.364867
C	2.613102	2.65166	-0.584288
H	1.775141	-1.664662	0.663641
H	1.188738	-0.210819	1.520803
H	2.867349	-0.764581	1.735922
H	1.650735	0.276546	-0.899628
H	3.325378	-0.270273	-0.701259
H	4.895034	1.273829	0.504693
H	3.973515	1.520017	2.013953
H	5.210111	3.6775	0.598001
H	3.813301	3.895244	1.661498
H	1.835331	2.59912	-1.356911
