11
-1149.68
C          0.89965        0.03791       -0.00783
C          2.38220        0.08514        0.00010
C          3.24230        1.16556        0.00288
C          4.59400        0.71631        0.01066
N          4.79355       -0.59693        0.01373
S          3.31516       -1.35111        0.00699
H          0.47678        1.04812       -0.00043
H          0.52168       -0.48931        0.87423
H          0.53132       -0.47246       -0.90376
H          2.93070        2.20044       -0.00043
H          5.47203        1.35057        0.01427
