16
-1560.72
N          1.02268       -0.00604        0.18398
C          2.47000        0.00000        0.00000
C          2.87203       -0.74608       -1.27974
C          2.26712       -0.18310       -2.56373
O          2.73145       -0.94449       -3.67744
C          2.95202        1.36117        0.00000
C          3.34930        2.48307        0.00000
H          0.79898        0.45279        1.06616
H          0.69520       -0.96655        0.26828
H          2.91725       -0.53187        0.84882
H          2.58867       -1.80414       -1.19444
H          3.96664       -0.75038       -1.37698
H          2.54606        0.86167       -2.72843
H          1.17540       -0.25067       -2.55262
H          3.67997       -0.75460       -3.78019
H          3.69622        3.49063       -0.00149
