14

C	3.18062	-1.576554	0.211565
C	2.50336	-0.259087	-0.015916
O	1.32964	-0.143717	-0.278435
N	3.275983	0.905956	0.081207
C	4.623491	1.064676	0.369747
C	5.070391	2.507206	0.377561
O	5.368619	0.140723	0.59355
H	4.011749	-1.716003	-0.493493
H	2.427279	-2.363773	0.092106
H	3.632645	-1.613877	1.212394
H	2.723338	1.739915	-0.093423
H	4.892198	2.976709	-0.602713
H	6.14093	2.541053	0.60885
H	4.514186	3.084353	1.13247
