16
-1615.75
N          2.71528       -0.74896       -1.25569
C          2.40666       -0.00978       -0.02389
C          2.97739        1.43282        0.00000
C          2.49648        2.16113        1.23679
C          1.75774        3.27972        1.21993
C          4.42139        1.43282        0.00000
C          5.61155        1.43282        0.00000
H          2.40544       -1.71437       -1.15173
H          3.72860       -0.78805       -1.37477
H          2.79081       -0.58363        0.82894
H          1.31568        0.02695        0.07782
H          2.61603        1.95797       -0.89429
H          2.77855        1.73692        2.19816
H          1.45256        3.74930        0.28941
H          1.44856        3.75494        2.14596
H          6.67717        1.44141       -0.00018
