14
-1372.75
N          0.85862       -0.05268       -0.34321
C          2.25109        0.00454        0.12690
C          3.31894       -0.83769       -0.52597
O          3.03583       -1.43671       -1.80998
C          2.86566       -0.36574       -2.75278
O          3.04136        0.90825       -2.11020
C          3.32239        0.65041       -0.71626
H          0.35941        0.80266       -0.10423
H          0.35931       -0.82539        0.09467
H          2.34724        0.14165        1.20171
H          4.08274       -1.28233        0.09805
H          3.61506       -0.46847       -3.54304
H          1.86271       -0.41852       -3.18516
H          4.08830        1.23455       -0.22416
