15

C	1.448975	-0.586114	-0.253357
C	2.807566	-0.046062	0.143125
C	2.916329	1.450446	0.013113
O	1.987942	2.151553	-0.301556
C	4.286987	2.096862	0.253871
C	5.248565	1.343476	1.041985
C	6.046728	0.716637	1.702994
H	1.400809	-1.675679	-0.112681
H	1.227304	-0.360932	-1.30684
H	0.654246	-0.12134	0.346931
H	3.628374	-0.497144	-0.442948
H	3.063033	-0.295081	1.18886
H	4.097705	3.087401	0.69674
H	4.70305	2.293968	-0.751198
H	6.759107	0.1667	2.290061
