12

C	1.109214	-0.036389	0.19667
C	2.401443	0.017815	-0.136955
N	3.19251	1.147391	-0.319747
C	4.483258	0.841525	-0.659124
O	5.391294	1.599278	-0.878778
C	4.491692	-0.677754	-0.690519
O	3.178206	-1.07068	-0.360195
H	0.62466	-1.004971	0.305236
H	0.540795	0.877028	0.363585
H	2.858687	2.096185	-0.212684
H	4.771629	-1.041608	-1.693049
H	5.2172	-1.07445	0.03915
