15
-1570.15
C          2.69758       -1.18593       -0.29338
O          2.18981        0.11111       -0.01859
C          3.20899        1.09716        0.00631
C          2.72755        2.26837        0.81187
C          2.68201        3.36911        0.04343
C          3.09197        3.02797       -1.29572
C          3.38733        1.72036       -1.34894
H          1.85726       -1.88518       -0.32067
H          3.38583       -1.50266        0.49645
H          3.20151       -1.21055       -1.26427
H          4.15143        0.71417        0.41463
H          2.45409        2.21337        1.85334
H          2.36435        4.35303        0.35248
H          3.12334        3.72596       -2.11816
H          3.70555        1.18535       -2.22916
