16
-1471.15
C          1.00980       -0.02216        0.01829
C          2.53877       -0.00620       -0.03988
C          3.02024       -0.79912       -1.25802
C          3.04671        1.44558       -0.05562
N          4.50268        1.51657       -0.00639
H          0.64897        0.50633        0.90669
H          0.63321       -1.04920        0.06567
H          0.57340        0.45872       -0.86350
H          2.91450       -0.50468        0.86375
H          2.69388       -0.32810       -2.19131
H          2.62176       -1.81901       -1.23758
H          4.11186       -0.87469       -1.27873
H          2.64066        1.98965        0.80500
H          2.69724        1.95835       -0.95901
H          4.83877        1.06958        0.84553
H          4.79233        2.49161        0.04818
