16
-1497.98
C          1.31913       -0.71950        0.49665
C          2.80468       -0.62075        0.21106
O          3.18119        0.75559        0.26262
C          4.55563        0.95370       -0.04211
C          5.44636        0.54177        1.10545
N          6.30070       -0.42281        0.97597
O          6.97591       -0.59280        2.18995
H          0.98788       -1.76120        0.48042
H          0.74597       -0.15486       -0.24642
H          1.08499       -0.28840        1.47498
H          3.01956       -1.02854       -0.78310
H          3.36088       -1.19097        0.96221
H          4.70458        2.02657       -0.19731
H          4.83229        0.43177       -0.96409
H          5.32379        1.09405        2.05368
H          7.57882       -1.33445        1.99438
