19

C	1.057238	-0.246053	-0.312184
C	2.557499	-0.163186	-0.08641
C	3.088949	1.264698	-0.088108
O	2.41669	2.059159	0.885284
C	4.601067	1.343924	0.090407
C	5.149391	2.763458	0.00668
O	4.708434	3.588904	1.044725
H	0.694924	-1.282771	-0.251299
H	0.785303	0.146775	-1.305006
H	0.517196	0.353801	0.434574
H	3.096804	-0.739431	-0.856716
H	2.826657	-0.632439	0.879309
H	2.824861	1.737742	-1.052042
H	2.569625	1.650575	1.747196
H	5.084872	0.718611	-0.679055
H	4.872897	0.908218	1.070357
H	4.893065	3.182064	-0.992167
H	6.250751	2.734609	0.055248
H	3.746537	3.479793	1.080746
