15
-1441.53
C          0.96106       -0.06025       -0.08512
N          2.40326        0.03603       -0.17337
C          3.02844        1.28569        0.23704
C          4.50845        1.20272       -0.11260
O          5.06899        0.06031        0.54398
N          4.46273       -1.16467        0.15080
C          3.19975       -1.08358       -0.12814
H          0.48565        0.90133       -0.30591
H          0.65923       -0.37172        0.92033
H          0.57844       -0.79069       -0.80592
H          2.56816        2.13800       -0.27374
H          2.90164        1.41237        1.31843
H          5.03645        2.09244        0.24338
H          4.67430        1.11414       -1.19290
H          2.65881       -2.01021       -0.38661
