17
-1631.
C          2.29575       -0.83761       -0.95362
O          1.88530        0.43021       -0.46041
C          2.99697        1.26639       -0.07851
C          3.40364        2.34778       -1.04873
C          2.74543        2.49408       -2.37841
C          2.64863        2.71010        0.20043
O          3.40627        3.37285        1.22638
H          1.40628       -1.39593       -1.25704
H          2.81363       -1.39815       -0.16968
H          2.94924       -0.71582       -1.82268
H          3.76581        0.82717        0.54911
H          4.45684        2.59330       -1.10538
H          1.66485        2.32184       -2.33386
H          3.17555        1.78357       -3.09170
H          2.90804        3.50480       -2.76697
H          1.60338        2.98716        0.10827
H          4.34616        3.12915        1.21427
