15
-1619.03
C          1.00000        0.00000        0.00000
C          2.44400        0.00000        0.00000
C          3.63416        0.00000        0.00000
C          5.04016        0.00000        0.00000
C          5.74029        1.05287        0.44449
C          7.18420        1.08731        0.45904
C          7.88322        2.13832        0.90275
H          0.60600        1.02088        0.01190
H          0.60594       -0.52069        0.87816
H          0.60592       -0.50011       -0.89003
H          5.54258       -0.88676       -0.37437
H          5.21487        1.93119        0.81530
H          7.71977        0.21426        0.09046
H          7.40231        3.03489        1.28126
H          8.96870        2.12103        0.89545
