16
-1611.43
C          3.15490       -1.21186        0.28745
C          2.45091        0.10340        0.06493
O          1.23615        0.13167       -0.14098
C          3.23622        1.38875        0.08614
C          2.39713        2.62804       -0.04011
C          4.57347        1.38109        0.21623
N          5.44050        2.44598        0.25542
H          3.67235       -1.20790        1.25030
H          3.85134       -1.41032       -0.53113
H          2.41397       -2.01736        0.30882
H          1.63193        2.65290        0.74343
H          1.89816        2.65249       -1.01471
H          2.97904        3.54903        0.05427
H          5.12588        0.44910        0.31637
H          5.07213        3.31923       -0.11321
H          6.37595        2.24174       -0.09112
