11

C	0.932983	-0.028256	0.02608
C	2.140458	0.002113	-0.006235
C	3.611404	0.032519	-0.043349
C	4.142629	-0.717693	-1.192606
C	4.578409	-1.336842	-2.134372
C	4.13012	1.409161	-0.005862
C	4.562089	2.537228	0.026633
H	-0.141104	-0.053083	0.051269
H	3.971874	-0.476785	0.873112
H	4.96402	-1.883508	-2.975234
H	4.944547	3.541047	0.051784
