16

C	0.97576	-0.104444	0.0083
C	2.501163	-0.022036	-0.004241
C	3.008786	1.346374	-0.000863
C	3.413354	2.489948	0.002292
C	3.879704	3.873172	0.003288
C	2.758826	4.893282	-0.188272
H	0.642432	-1.152915	0.00536
H	0.546699	0.394456	-0.873458
H	0.561985	0.384599	0.902807
H	2.896861	-0.549948	-0.889787
H	2.911602	-0.559251	0.868903
H	4.63707	3.997669	-0.790623
H	4.408094	4.073528	0.952027
H	2.2419	4.735474	-1.146821
H	3.159768	5.918127	-0.179795
H	2.009236	4.810576	0.61318
