17
-1625.21
N          2.90730       -0.80631       -1.19735
C          2.32964       -0.10158       -0.04673
C          2.81786        1.35720        0.05443
N          4.28201        1.44081       -0.03852
C          4.72762        2.82738        0.05898
C          6.19212        2.87935       -0.03612
C          7.39037        2.92483       -0.10930
H          2.54483       -1.75914       -1.21104
H          3.90951       -0.90224       -1.02509
H          2.59861       -0.64370        0.86741
H          1.23753       -0.11232       -0.12706
H          2.47203        1.77539        1.00692
H          2.36163        1.93969       -0.75600
H          4.55071        1.08470       -0.95695
H          4.41418        3.26036        1.01581
H          4.28868        3.43076       -0.74412
H          8.45358        2.95947       -0.16841
