17

C	0.997455	-0.026849	-0.040121
C	2.51852	0.037671	-0.05045
C	3.169616	-1.15488	-0.795478
N	3.467326	-0.682396	-2.138707
C	3.363793	0.591908	-2.100839
C	3.635436	1.492774	-3.256322
N	3.023769	1.134407	-0.870174
H	0.556235	0.892353	0.378189
H	0.647627	-0.872855	0.57171
H	0.611408	-0.16256	-1.063152
H	2.894331	0.12248	0.98259
H	2.513083	-2.040915	-0.816838
H	4.10899	-1.466036	-0.303266
H	4.458686	2.184334	-3.018205
H	2.750156	2.102502	-3.499945
H	3.9088	0.890056	-4.129927
H	2.535397	2.022556	-0.847955
