13

C	0.926548	-0.110319	-0.034606
C	2.408758	0.009026	-0.007418
C	3.191916	1.128914	0.081359
N	2.949611	2.473166	0.249418
O	4.487272	0.741937	0.076156
C	4.441665	-0.609742	-0.018275
N	3.251737	-1.089986	-0.06244
H	0.444809	0.866453	-0.192105
H	0.531811	-0.527765	0.90651
H	0.606525	-0.779811	-0.847498
H	3.556066	3.073386	-0.301127
H	1.975717	2.720746	0.124467
H	5.396593	-1.130036	-0.06033
