19
-1905.12
C          0.22715        0.81965        0.32100
C          1.63553        0.88726       -0.17398
C          2.65416        1.40267        0.53117
C          4.07369        1.46229        0.03674
C          4.57902        2.90611       -0.04976
C          5.99787        2.96524       -0.54417
C          7.01929        3.47055        0.15976
H         -0.43253        1.37021       -0.35643
H          0.11970        1.24570        1.32343
H         -0.10593       -0.22211        0.35511
H          1.81378        0.48500       -1.16905
H          2.47332        1.79715        1.52947
H          4.16036        0.97846       -0.94461
H          4.70304        0.88781        0.72788
H          4.49387        3.38967        0.93178
H          3.94931        3.48129       -0.73996
H          6.18653        2.57912       -1.54405
H          6.88095        3.87385        1.15798
H          8.02241        3.49131       -0.25465
