15

C	-1.476376	0.680761	0.187905
C	-1.432422	-0.79087	-0.238643
C	-0.275206	-1.543288	0.337834
C	0.990953	-1.086437	0.435171
N	1.553589	0.094818	-0.008762
C	0.925744	1.15157	-0.371419
N	-0.396073	1.466502	-0.359423
H	-2.414978	1.142439	-0.156517
H	-1.481497	0.729184	1.291088
H	-1.425914	-0.827567	-1.34321
H	-2.374373	-1.267757	0.076561
H	-0.471625	-2.545077	0.731311
H	1.729803	-1.759103	0.888353
H	1.53585	1.979621	-0.767773
H	-0.625954	2.393523	-0.690226
