13
-1402.64
C          0.98259        0.00223       -0.00537
C          2.52000        0.00000        0.00000
C          3.01501       -0.71746        1.26644
C          3.00065       -0.73715       -1.18525
N          3.36460       -1.34046       -2.10824
C          3.00202        1.36117        0.00000
N          3.38623        2.44616        0.00000
H          0.58487        0.50181       -0.89803
H          0.57923        0.52750        0.86900
H          0.58011       -1.01808        0.00296
H          2.66783       -0.21154        2.17565
H          4.11135       -0.74748        1.30840
H          2.65945       -1.75437        1.30474
