16
-1684.48
C          0.95219       -0.02824       -0.00996
C          2.43316        0.04987       -0.00015
C          3.28049        1.13878        0.00773
C          4.61790        0.65678        0.01534
C          5.85943        1.47150        0.02570
C          4.53730       -0.72112        0.01211
N          3.21519       -1.07852        0.00238
H          0.50650        0.97118       -0.00162
H          0.58932       -0.56877        0.87036
H          0.60042       -0.54920       -0.90642
H          2.96983        2.17532        0.00795
H          5.63118        2.54190        0.01146
H          6.47397        1.24370       -0.85122
H          6.44712        1.26130        0.92513
H          5.31049       -1.47878        0.01552
H          2.86967       -2.02942       -0.00194
