18
-1712.31
C          0.51236       -0.36066       -0.40030
C          1.98314       -0.29240       -0.77911
O          2.16525        0.79531       -1.68942
C          2.87624       -0.09562        0.46187
N          4.28887        0.00462        0.04850
C          5.22036       -0.37473        1.10826
C          4.96021       -1.28722       -0.06314
H          0.31781       -1.19055        0.28429
H         -0.10482       -0.49243       -1.29444
H          0.18522        0.57174        0.07393
H          2.26155       -1.21374       -1.30417
H          3.12861        0.95820       -1.69698
H          2.69275       -0.90185        1.18396
H          2.61391        0.85025        0.94994
H          4.82675       -0.65312        2.07806
H          6.15798        0.16670        1.13103
H          5.72075       -1.35634       -0.83142
H          4.38430       -2.18976        0.09726
