11

C	2.161022	-0.744278	-1.065275
C	2.64183	-0.109996	-0.000784
S	3.277919	1.532356	-0.184201
O	3.136691	1.941822	-1.572527
O	2.759097	2.337352	0.907867
C	4.973579	1.290448	0.113302
C	6.160266	1.156719	0.317499
H	1.712552	-1.73695	-0.974374
H	2.201049	-0.27174	-2.051776
H	2.642339	-0.483121	1.027217
H	7.215156	1.04381	0.499471
