17
-1621.36
C          1.06476        0.10333       -0.11541
C          2.55389        0.07328       -0.05006
C          3.34327       -0.62866       -1.12246
C          3.45036        0.87280       -0.98282
C          2.85876        1.71303       -2.08893
N          4.69124        1.41708       -0.40917
H          0.67884        0.90306        0.52294
H          0.65986       -0.84514        0.25086
H          0.67998        0.25703       -1.12608
H          2.88318       -0.07064        0.97425
H          2.81283       -1.03259       -1.97751
H          4.18837       -1.23674       -0.81976
H          2.03769        1.21087       -2.60990
H          3.62302        1.94122       -2.83969
H          2.48123        2.65815       -1.68669
H          5.04904        0.82013        0.33371
H          4.51310        2.32333        0.02217
