12
-1300.24
C          1.09351       -0.07830        0.17658
C          2.40843        0.00999       -0.02335
C          3.29216        1.21016        0.03319
O          4.60384        0.69837       -0.28252
C          4.50635       -0.65072       -0.49115
O          5.43875       -1.38201       -0.77456
N          3.20638       -1.03750       -0.33292
H          0.56576       -1.02361        0.10249
H          0.50519        0.80112        0.42021
H          3.32478        1.65538        1.03150
H          3.02234        1.96142       -0.71406
H          2.92436       -1.99819       -0.44813
