13
-1360.84
C          1.09629       -0.19299        0.22183
C          2.49183       -0.22149       -0.33888
O          2.85291       -1.05170       -1.16580
N          3.32971        0.74013        0.16713
C          4.72419        0.77363       -0.23515
C          5.43098        1.93328        0.32812
N          5.96386        2.85205        0.79570
H          0.88395        0.75626        0.72158
H          0.98266       -1.00865        0.94060
H          0.37958       -0.31719       -0.59467
H          3.02941        1.30670        0.95162
H          4.76766        0.79051       -1.32959
H          5.19115       -0.15859        0.10119
