16
-1601.32
C          1.25129       -0.19205       -0.69798
C          2.59542       -0.09351        0.00181
N          3.16270        1.22648       -0.20988
C          4.49851        1.53146       -0.13139
C          5.02697        2.75830       -0.11563
C          6.48929        2.93355       -0.05279
O          6.99963        4.04695       -0.04039
H          0.82096       -1.18869       -0.56084
H          1.35527       -0.00788       -1.77266
H          0.54512        0.54412       -0.29971
H          3.26468       -0.86622       -0.39346
H          2.47172       -0.27175        1.07543
H          2.52389        2.00991       -0.08390
H          5.13487        0.64770       -0.09642
H          4.43119        3.66097       -0.15927
H          7.09337        2.01155       -0.01889
