12
-1223.38
O          2.55439       -1.66667       -0.03553
N          3.33402       -0.55354       -0.43426
C          3.56305        0.38269        0.55050
O          3.00613        0.31708        1.64656
C          4.48061        1.52000        0.15016
C          5.80959        1.05072       -0.27028
C          6.89915        0.67400       -0.61234
H          2.33023       -1.44595        0.89584
H          4.00781       -0.72262       -1.17509
H          4.57973        2.19660        1.00627
H          3.99702        2.08182       -0.65666
H          7.86921        0.34614       -0.90706
