10

O	1.433632	-0.254583	-0.074096
C	0.480748	-1.243911	-0.077237
C	-0.831527	-1.010962	-0.083082
O	-1.385685	0.245996	-0.086647
C	-0.432807	1.235323	-0.083495
C	0.879467	1.002369	-0.07765
H	0.900786	-2.248845	-0.074459
H	-1.571474	-1.810114	-0.085517
H	-0.852838	2.240261	-0.086262
H	1.619399	1.801536	-0.075205
