17

C	1.04303	-0.156811	0.205982
C	2.547394	-0.025703	-0.048405
C	2.952904	-0.669764	-1.377595
C	2.9774	1.372224	0.011037
C	3.324617	2.533369	0.03954
C	3.757096	3.926108	0.095555
O	3.431932	4.593064	-1.098054
H	0.762453	0.279357	1.175744
H	0.743464	-1.21623	0.203549
H	0.471405	0.364445	-0.577327
H	3.07775	-0.557227	0.763589
H	2.449132	-0.168521	-2.218217
H	2.667715	-1.733084	-1.390854
H	4.037776	-0.59749	-1.542514
H	4.849919	3.939412	0.289914
H	3.277493	4.400805	0.976974
H	3.762469	5.493965	-1.026317
