10
-944.51
C          1.01691       -0.02046       -0.00067
S          2.78378       -0.13138        0.01078
O          3.29640       -0.53595        1.29779
O          3.31201       -0.55045       -1.26535
C          3.36742        1.55612        0.00468
C          3.76208        2.69163        0.00032
H          0.70055        0.50459       -0.90368
H          0.68926        0.51018        0.89500
H          0.61591       -1.03604       -0.00008
H          4.12767        3.69193       -0.00353
