14
-1457.1
C          0.98586       -0.01678        0.01219
C          2.52000        0.00000        0.00000
N          2.99321       -0.66926        1.21189
C          3.01150       -0.76158       -1.16656
C          3.41500       -1.37976       -2.11499
C          3.00202        1.36117        0.00000
C          3.39930        2.48307        0.00000
H          0.57542        0.46636       -0.88401
H          0.57981        0.51684        0.88093
H          0.59180       -1.04074        0.03545
H          2.70893       -0.11910        2.01911
H          4.01152       -0.65327        1.20234
H          3.77478       -1.92928       -2.95401
H          3.75698        3.48692       -0.00556
