20

C	2.533022	-1.304186	-1.569127
C	2.411406	-0.644017	-0.22685
C	1.593113	-1.116368	0.72131
C	3.254831	0.586222	-0.004436
C	4.762117	0.364048	-0.13753
C	5.319183	-0.657666	0.839745
N	6.763704	-0.737808	0.734151
H	2.347656	-0.581597	-2.382052
H	1.828123	-2.139869	-1.680078
H	3.55088	-1.697632	-1.729212
H	0.974073	-2.002514	0.553044
H	1.515234	-0.631268	1.698649
H	3.034811	1.000593	0.993197
H	2.950188	1.356685	-0.735917
H	5.293137	1.317291	0.016935
H	5.006798	0.050847	-1.169166
H	4.790685	-1.624527	0.690202
H	5.061999	-0.33902	1.865891
H	7.026756	-1.090718	-0.185048
H	7.133855	-1.406845	1.405574
