16
-1533.46
C          3.49230       -1.24192       -1.16274
N          3.24546       -0.50661        0.07296
C          3.45675        0.94015       -0.09730
C          4.93655        1.31116       -0.04815
O          5.82589        0.52040        0.28277
C          5.26584        2.76576       -0.35962
O          6.66499        2.99534       -0.42488
H          3.30545       -2.30653       -0.99154
H          4.52525       -1.13440       -1.50705
H          2.81436       -0.91501       -1.95760
H          3.90895       -0.84127        0.77909
H          2.96610        1.45964        0.73241
H          3.01492        1.29765       -1.03334
H          4.84668        3.39743        0.42840
H          4.82959        3.03870       -1.32395
H          7.08854        2.25463        0.05552
