17
-1713.33
C          1.48549       -0.15104       -0.43730
C          2.84832        0.06910        0.13498
C          3.62699       -1.12123        0.64934
C          4.05691       -0.39507       -0.59706
C          5.05092        0.71254       -0.54588
O          4.35180        1.87195       -0.06395
C          3.17174        1.44244        0.64008
H          1.19246        0.68141       -1.08823
H          0.74702       -0.23121        0.36892
H          1.43506       -1.07099       -1.03274
H          3.19913       -2.11113        0.53502
H          4.21907       -1.00356        1.55039
H          3.95994       -0.86811       -1.56245
H          5.87599        0.48753        0.13788
H          5.46117        0.94230       -1.53314
H          3.38700        1.43806        1.71418
H          2.37806        2.16991        0.44662
