15

C	1.022633	0.004516	-0.346127
O	2.409427	0.134602	-0.399987
C	2.876727	1.239286	0.318342
C	4.327399	1.344294	0.234635
C	5.533578	1.457138	0.192305
C	6.988658	1.570245	0.078428
O	7.42073	2.408768	-0.958682
H	0.746612	-0.882908	-0.932316
H	0.502307	0.88481	-0.775941
H	0.654486	-0.132069	0.691004
H	2.584029	1.170862	1.388794
H	2.42526	2.181167	-0.062917
H	7.40901	0.546862	-0.006302
H	7.394124	1.98899	1.014074
H	7.01	2.101527	-1.774171
