13

C	0.960241	-0.091032	0.260364
C	2.252444	-0.039544	-0.066668
C	3.070784	1.213711	-0.200483
O	4.28803	1.116158	0.511834
C	4.927455	-0.051307	0.255474
C	4.288438	-1.131807	-0.210009
O	2.932936	-1.178906	-0.375288
H	0.411071	0.826633	0.471146
H	0.437053	-1.047689	0.306479
H	2.524553	2.081504	0.187799
H	3.294501	1.381273	-1.273027
H	5.999642	-0.039008	0.455968
H	4.784785	-2.068095	-0.459488
