20

C	1.862393	-0.558928	-1.321283
C	2.292374	0.122124	-0.031595
C	3.570851	0.931439	-0.173865
C	3.406057	2.28275	-0.90325
N	3.309645	2.937382	0.394352
C	3.842203	4.250761	0.581931
C	3.921867	1.792686	1.055884
H	0.928721	-1.12652	-1.187991
H	2.632436	-1.262989	-1.677134
H	1.689738	0.174207	-2.125451
H	2.440011	-0.635852	0.757799
H	1.495326	0.793825	0.331774
H	4.387693	0.296024	-0.550645
H	2.529046	2.409948	-1.564344
H	4.317781	2.563644	-1.47465
H	3.728027	4.560469	1.633156
H	3.290858	4.975975	-0.036975
H	4.923147	4.331162	0.319013
H	5.019684	1.898714	1.19642
H	3.471504	1.506288	2.023523
