15
-1504.21
C          0.87167       -1.10587        0.93239
C          1.12401       -0.36096       -0.35608
C          0.90169        1.10659       -0.51915
N         -0.32136        1.53783        0.15869
N         -1.48412        0.83430        0.04654
C         -1.40872       -0.45079       -0.13001
C         -0.12262       -1.18608       -0.20331
H          1.47540       -1.98317        1.13641
H          0.60121       -0.54653        1.82067
H          1.90997       -0.72694       -1.00470
H          1.75847        1.66687       -0.13118
H          0.81684        1.34246       -1.58590
H         -0.12509        1.73292        1.14132
H         -2.33652       -1.03683       -0.22688
H         -0.16770       -2.11634       -0.75892
