20
-1919.22
C          3.02326       -0.80912        1.19689
C          2.58520        0.01147       -0.01351
C          3.07614        1.48388       -0.03719
C          2.55515        2.15966       -1.31890
N          2.51242        2.22459        1.09575
C          4.59213        1.54259       -0.05497
C          5.39903        2.20188        0.79039
H          2.64543       -1.83290        1.10532
H          2.62912       -0.39685        2.13022
H          4.11315       -0.86569        1.27352
H          1.48809       -0.01138       -0.06206
H          2.93688       -0.50457       -0.91720
H          2.92804        1.65221       -2.21714
H          2.87144        3.20846       -1.37985
H          1.45932        2.14105       -1.36585
H          2.81800        1.79113        1.96416
H          1.49749        2.14643        1.08349
H          5.06796        0.98303       -0.86029
H          5.00991        2.80084        1.60728
H          6.47675        2.16960        0.66721
