15
-1584.95
C          0.99869        0.03435        0.17144
C          2.45237        0.07327       -0.16740
C          3.16275        1.20379       -0.26996
C          4.62416        1.33628       -0.61455
C          4.79876        2.82239       -0.64078
C          3.62717        3.38162       -0.34130
O          2.61359        2.47135       -0.10152
H          0.70941       -0.98411        0.44980
H          0.39419        0.33237       -0.69053
H          0.76721        0.68595        1.02013
H          2.94331       -0.87985       -0.33804
H          4.84790        0.89994       -1.59226
H          5.25854        0.88712        0.15573
H          5.71630        3.34150       -0.86472
H          3.35285        4.41808       -0.26265
