16
-1544.03
C          2.41335       -0.74288       -1.17450
N          2.59616       -0.21893        0.17461
C          2.95578        1.21550        0.16152
C          4.42272        1.44855       -0.19745
O          5.26206        0.57100       -0.35908
O          4.66789        2.78903       -0.27385
C          6.02715        3.11542       -0.56101
H          2.12199       -1.79579       -1.11414
H          3.33005       -0.68416       -1.76859
H          1.61250       -0.21185       -1.69881
H          3.36505       -0.73124        0.61620
H          2.80332        1.60755        1.17265
H          2.31195        1.77104       -0.52834
H          6.12991        4.20457       -0.52248
H          6.29393        2.77711       -1.56762
H          6.69844        2.68063        0.18578
