19

C	2.475522	-1.322457	-0.694117
C	1.984673	0.00517	-0.13339
C	3.098921	0.940626	0.296244
C	3.935094	0.471608	1.462638
C	3.783358	1.743804	-0.78822
C	2.840826	2.413222	0.174133
O	3.341651	3.243415	1.163884
H	1.635399	-1.948129	-1.032183
H	3.035184	-1.899862	0.05782
H	3.145443	-1.162554	-1.554267
H	1.320603	-0.173315	0.73153
H	1.364089	0.512401	-0.892701
H	4.616969	1.264135	1.797486
H	4.533474	-0.413844	1.197654
H	3.290978	0.205445	2.316608
H	3.470113	1.605465	-1.827892
H	4.848629	1.954952	-0.653174
H	1.851516	2.701046	-0.212953
H	3.669017	4.043153	0.739799
