10

C	0.936767	0.000661	0.031726
C	2.143856	0.009511	0.000175
C	3.612725	0.014333	-0.036662
C	4.152108	-0.71706	-1.191139
C	4.594132	-1.321874	-2.138318
C	4.138746	1.392364	0.008583
N	4.555422	2.469492	0.046136
H	-0.138105	-0.004364	0.056306
H	3.977986	-0.485163	0.882724
H	4.985804	-1.85618	-2.98494
