12
-1309.58
C          0.99729       -0.01765        0.00765
C          2.33122       -0.06977        0.00771
N          3.10244        1.06129        0.00579
C          4.48121        1.04659        0.00580
O          5.19016        0.04954        0.00751
C          5.09888        2.35596        0.00352
C          5.61185        3.44213        0.00160
H          0.41640       -0.93513        0.00921
H          0.44918        0.91793        0.00607
H          2.85920       -1.02270        0.00932
H          2.64552        1.96450        0.00426
H          6.08090        4.39897       -0.00012
