19
-1754.9
C          0.93899       -0.12997       -0.04741
C          2.44607       -0.22414        0.14314
C          3.14137        1.07698       -0.27441
N          4.59098        1.06960       -0.01103
C          5.30127        0.11366       -0.86300
C          5.14100        2.41285       -0.21602
H          0.45972       -1.06752        0.25211
H          0.68887        0.05967       -1.09586
H          0.51516        0.67676        0.55929
H          2.81320       -1.07020       -0.44760
H          2.66122       -0.44218        1.19730
H          2.68323        1.89222        0.30147
H          2.93978        1.28524       -1.33356
H          5.00993       -0.91594       -0.63377
H          6.38155        0.16546       -0.68260
H          5.12433        0.29842       -1.92879
H          4.66324        3.13295        0.45775
H          5.00677        2.76135       -1.24659
H          6.21123        2.43177        0.01850
