15
-1434.72
N          1.45586       -0.31942       -0.91107
C          2.07457        0.16641        0.32752
C          2.84019        1.46526        0.04131
C          2.11973        2.77922        0.13990
C          0.79713        2.91977        0.28136
N          4.09571        1.32684       -0.27979
O          4.72481        2.55294       -0.52790
H          1.10662       -1.26333       -0.75570
H          2.19149       -0.40672       -1.61511
H          2.78037       -0.58329        0.70306
H          1.31816        0.31940        1.10172
H          2.74278        3.66594        0.07355
H          0.11276        2.07918        0.31982
H          0.35700        3.91139        0.33332
H          5.62926        2.27885       -0.76765
