16

C	1.020731	-0.030191	-0.052654
C	2.528937	-0.010933	0.080761
C	3.101822	1.180314	0.843899
C	4.421663	0.657833	1.380303
O	5.33819	1.304067	1.80922
C	4.382843	-0.859476	1.249527
N	3.014903	-1.132063	0.878319
H	0.68244	-0.939123	-0.575536
H	0.661328	0.837159	-0.627089
H	0.551709	-0.017535	0.943021
H	2.97679	-0.004999	-0.940689
H	2.465891	1.419071	1.715182
H	3.23879	2.100318	0.25932
H	5.148009	-1.129668	0.486818
H	4.685359	-1.337802	2.195185
H	2.882616	-2.029031	0.421772
