19
-1861.52
C          1.06845       -0.06458        0.16210
C          2.58547       -0.17192        0.14073
C          3.24197        1.20862        0.04290
C          4.77230        1.12153       -0.02240
C          5.37926        2.47250       -0.38943
C          5.32971        0.70094        1.31878
O          6.00508       -0.31027        1.48013
H          0.61830       -1.06169        0.18402
H          0.69822        0.45546       -0.72701
H          0.72784        0.48178        1.04703
H          2.88838       -0.78667       -0.71509
H          2.91878       -0.69006        1.04708
H          2.93288        1.81932        0.90077
H          2.86898        1.71122       -0.85833
H          5.07572        0.38160       -0.77170
H          5.12260        3.24128        0.34757
H          5.02414        2.80655       -1.36994
H          6.47246        2.40809       -0.43030
H          5.09871        1.36455        2.17074
