18

C	1.638572	-0.16169	0.2084
O	3.010114	0.074287	0.185062
C	3.350988	1.424318	0.040752
C	4.849796	1.548931	0.140089
N	5.448066	1.06638	1.349742
C	5.656292	1.363073	-1.113537
C	5.504183	2.73009	-0.512924
H	1.480208	-1.242655	0.330882
H	1.14359	0.159518	-0.730838
H	1.137088	0.363624	1.046866
H	2.87376	2.030274	0.84313
H	2.98364	1.826649	-0.926689
H	5.132119	0.109264	1.503039
H	5.112729	1.611068	2.143663
H	5.125044	1.137279	-2.041973
H	6.619609	0.863105	-0.994147
H	6.365436	3.152688	0.009162
H	4.870967	3.459217	-1.027329
