17

C	0.930862	-0.061297	0.01973
C	2.451103	-0.011595	0.053207
O	2.999687	-0.773669	-0.990007
C	2.999421	1.433199	0.039355
C	2.532005	2.266706	1.236066
C	4.459151	1.433042	-0.051359
C	5.669069	1.454138	-0.097664
H	0.471852	0.376656	0.917599
H	0.607136	-1.108764	-0.055793
H	0.541348	0.480951	-0.859296
H	2.808926	-0.49231	0.980361
H	2.784286	-0.340403	-1.823918
H	2.612175	1.909936	-0.884144
H	2.837994	1.790267	2.180494
H	1.438842	2.382819	1.241291
H	2.97949	3.269528	1.207778
H	6.742293	1.464305	-0.143659
