20
-1921.59
C          0.53721       -0.41014        0.22980
C          1.98404       -0.02929        0.23102
C          2.53176        1.18507        0.02132
C          1.75383        2.44329       -0.26215
C          4.04451        1.35070        0.01925
C          4.56426        2.20003        1.18706
N          6.02490        2.28353        1.16795
H          0.38757       -1.26558       -0.43691
H         -0.12931        0.38463       -0.10774
H          0.23213       -0.70832        1.23725
H          2.65098       -0.87044        0.42154
H          0.67840        2.28093       -0.35435
H          2.09337        2.89217       -1.20148
H          1.89947        3.17140        0.54182
H          4.34691        1.80221       -0.93479
H          4.52995        0.36596        0.05134
H          4.24128        1.77109        2.14225
H          4.16363        3.21708        1.12822
H          6.41982        1.35080        1.28395
H          6.33933        2.82655        1.97138
