20
-1917.92
C          2.99852       -0.97703       -0.76270
C          2.48806       -0.06200        0.35456
N          2.71306       -0.70844        1.65583
C          3.09995        1.36866        0.26702
C          2.48227        2.30543        1.31269
C          4.60940        1.39853        0.40110
C          5.44229        1.81769       -0.56158
H          2.83209       -0.51918       -1.74328
H          2.46774       -1.93553       -0.75231
H          4.06815       -1.18958       -0.66384
H          1.40215        0.03593        0.22903
H          3.71076       -0.87645        1.77909
H          2.27648       -1.63083        1.65468
H          2.82653        1.77286       -0.71777
H          2.73133        2.00101        2.33543
H          1.39088        2.32315        1.22059
H          2.84209        3.33175        1.17601
H          5.02687        1.07253        1.35107
H          5.07673        2.16539       -1.52261
H          6.51576        1.82603       -0.40067
