19
-1781.56
C          2.81959       -1.00148       -0.69306
N          2.28461        0.19220       -0.05169
C          3.27965        1.27019        0.03585
C          3.41134        2.30747       -1.05055
C          2.56567        2.28496       -2.27895
C          2.79892        2.68719        0.26881
N          3.52958        3.57349        1.17698
H          2.03733       -1.76337       -0.75949
H          3.65418       -1.41971       -0.12139
H          3.15983       -0.78557       -1.71063
H          1.94438       -0.05093        0.87868
H          4.20139        0.98570        0.54061
H          4.41001        2.66339       -1.27508
H          1.52924        1.99920       -2.07269
H          2.97758        1.57879       -3.00668
H          2.55328        3.27734       -2.74083
H          1.72154        2.84393        0.27876
H          4.53274        3.40055        1.14158
H          3.24568        3.40341        2.14111
