17

C	3.459253	2.376986	2.863397
O	4.303122	2.067135	1.799965
C	3.675448	2.125549	0.548033
C	4.708142	1.849442	-0.526803
C	5.859824	2.840968	-0.508871
C	5.512549	4.214981	-1.004285
O	4.430446	4.549031	-1.411023
H	4.044828	2.316514	3.792012
H	2.607728	1.670844	2.940977
H	3.040323	3.4001	2.778773
H	3.216665	3.121388	0.384909
H	2.85715	1.377865	0.485931
H	4.207545	1.874293	-1.5076
H	5.101866	0.831024	-0.381247
H	6.712365	2.491561	-1.119992
H	6.265104	2.944554	0.513875
H	6.362791	4.948555	-0.981443
