19

C	2.342602	-0.292314	-0.238925
C	3.856425	-0.355267	-0.333742
N	4.443293	0.882409	0.104297
C	5.715916	1.002772	0.150073
C	6.704371	-0.082224	-0.193331
N	6.26375	2.208536	0.498326
C	5.430113	3.292698	0.937895
H	1.876621	-1.232318	-0.573829
H	1.953976	0.530717	-0.85746
H	2.032301	-0.099052	0.799262
H	4.142571	-0.588894	-1.381027
H	4.21888	-1.217846	0.264774
H	6.533543	-0.970223	0.433952
H	7.748551	0.23831	-0.070849
H	6.565534	-0.398676	-1.238793
H	7.233378	2.210421	0.778238
H	4.639183	3.474639	0.196074
H	6.037994	4.201722	1.048924
H	4.921197	3.07811	1.895912
