15
-1547.56
C          0.99139        0.01312       -0.00424
N          2.43569       -0.01490        0.00080
C          3.23359        1.10326       -0.00125
C          4.54629        0.68779        0.00751
C          4.53878       -0.72789        0.01550
C          3.22481       -1.13997        0.01168
N          2.71904       -2.38481        0.02023
H          0.64302        1.04927        0.00407
H          0.63082       -0.50339        0.88914
H          0.63878       -0.48674       -0.91020
H          2.80789        2.09785       -0.00738
H          5.41498        1.33288        0.00947
H          5.40381       -1.37627        0.02475
H          1.73033       -2.59761       -0.04893
H          3.32707       -3.19799       -0.02243
