16
-1425.7
C          1.46791        0.09615        0.97763
N          2.91142        0.27991        0.91545
C          3.24281        1.59931        0.33188
S          5.00402        1.93732        0.04655
C          5.70370        1.84936        1.67667
O          5.55156        0.84160       -0.73438
O          5.13310        3.30758       -0.41440
H          1.24390       -0.88300        1.41192
H          1.01377        0.13469       -0.01782
H          1.00083        0.85433        1.61435
H          3.31532       -0.43778        0.30554
H          2.88372        2.40426        0.98259
H          2.77176        1.70835       -0.65215
H          5.21092        2.58802        2.31141
H          6.76950        2.07472        1.60066
H          5.56456        0.84193        2.07192
