18

C	1.367938	-0.176241	1.012208
C	2.5015	-0.005415	-0.00435
C	2.120652	-0.477572	-1.418024
C	0.972277	0.278628	-2.067844
N	0.734656	-0.231872	-3.405376
C	3.006639	1.369921	-0.007933
C	3.420925	2.509025	-0.007901
H	1.713616	0.060869	2.028761
H	1.002898	-1.21488	1.003893
H	0.521556	0.488454	0.786667
H	3.340796	-0.64463	0.325078
H	1.861988	-1.548676	-1.380451
H	3.012049	-0.395005	-2.064396
H	1.189529	1.367285	-2.020124
H	0.05298	0.1237	-1.478179
H	1.526556	-0.013672	-4.008646
H	-0.073122	0.223606	-3.823756
H	3.791586	3.517104	-0.005077
