17

C	0.924718	-0.016213	0.091223
C	2.436441	0.009779	-0.011469
N	2.813483	-0.016509	-1.414603
C	3.177519	1.079539	0.851993
C	4.204673	0.004469	1.258095
C	3.217402	-1.075074	0.773338
H	0.596454	-0.035674	1.141013
H	0.524946	-0.902686	-0.424241
H	0.4834	0.877719	-0.381657
H	3.827939	-0.015203	-1.511703
H	2.486336	0.833753	-1.87333
H	2.572991	1.416611	1.708667
H	3.542654	1.968052	0.31177
H	5.122804	0.042267	0.651541
H	4.505197	-0.027453	2.315765
H	3.604266	-1.911196	0.170147
H	2.617536	-1.486993	1.598953
