14
-1365.93
O          1.21984       -0.25356        0.06095
C          2.60524        0.06807       -0.03281
C          2.82396        1.54946        0.03257
C          1.87636        2.49192        0.16374
C          4.23199        2.01384       -0.05712
N          5.23494        1.20385       -0.17807
O          6.41749        1.95108       -0.23446
H          1.16058       -1.22213        0.00767
H          2.97867       -0.33010       -0.98207
H          3.12225       -0.43001        0.79402
H          0.82837        2.21324        0.23483
H          2.10277        3.55190        0.20508
H          4.38914        3.10735       -0.01459
H          7.10007        1.25941       -0.31928
