16

N	1.694515	0.986469	-1.511827
C	2.593133	0.118425	-0.974605
O	2.836906	-0.958524	-1.476852
C	3.242337	0.578885	0.322895
C	4.613748	-0.010643	0.506923
C	5.828156	0.72602	0.027614
C	5.569207	0.578223	1.500128
H	1.486025	1.882478	-1.098261
H	1.200979	0.703215	-2.348207
H	2.576184	0.251304	1.142312
H	3.277801	1.680761	0.376318
H	4.629141	-1.097152	0.377758
H	5.683512	1.714792	-0.419419
H	6.638929	0.148747	-0.424773
H	6.202652	-0.100475	2.078187
H	5.251036	1.467548	2.053289
