17
-1630.2
C          0.95650       -0.12953       -0.00796
C          2.48797       -0.06556       -0.04238
N          2.94439       -0.81141       -1.23085
C          3.02116        1.41383       -0.01242
N          2.54287        2.18638        1.13775
C          4.49741        1.44686        0.01729
C          5.69819        1.47987        0.04270
H          0.56234        0.26713        0.93289
H          0.60284       -1.16438       -0.08429
H          0.51423        0.43997       -0.83287
H          2.87249       -0.59669        0.83810
H          2.61536       -0.35190       -2.07896
H          2.54272       -1.74757       -1.23121
H          2.67926        1.92704       -0.92005
H          2.83711        1.71742        1.99268
H          1.52761        2.20966        1.14612
H          6.76263        1.50894        0.06303
