13

C	2.952738	-1.166854	0.461448
N	2.353282	0.048394	-0.019788
C	3.053608	1.235072	-0.002838
C	2.532123	2.501379	-0.196293
S	3.79929	3.65106	-0.134301
N	4.990094	2.546335	0.141173
C	4.472419	1.341606	0.189637
H	2.220841	-1.983337	0.389987
H	3.302609	-1.109031	1.511425
H	3.814803	-1.453429	-0.162919
H	1.36026	0.138851	0.144376
H	1.493386	2.77644	-0.377624
H	5.139568	0.494964	0.371397
