16
-1567.07
C          0.99278       -0.01102       -0.03549
C          2.52351       -0.02388        0.02398
C          2.99262       -0.72785        1.30097
C          3.09218       -0.73681       -1.20684
C          3.00640        1.42127       -0.00559
O          3.67556        1.95126        0.87523
H          0.63266        0.49145       -0.94090
H          0.56917        0.52552        0.82154
H          0.58625       -1.02842       -0.03172
H          2.61009       -0.22382        2.19592
H          4.08627       -0.73320        1.37261
H          2.64955       -1.76790        1.32940
H          2.77184       -0.24842       -2.13454
H          2.76546       -1.78171       -1.24723
H          4.18824       -0.72534       -1.19785
H          2.71206        2.00063       -0.89940
