18
-1716.5
C          1.33274       -0.13986       -0.00703
N          2.75147       -0.41309       -0.20828
C          3.53504        0.82085       -0.10045
C          5.00254        0.51284       -0.25962
C          5.72521        1.02062       -1.27631
C          5.63490       -0.35098        0.80188
O          5.10066       -1.66563        0.75066
H          0.76993       -1.07661       -0.06908
H          0.94325        0.53867       -0.77362
H          1.14693        0.29173        0.98215
H          2.87689       -0.78105       -1.15447
H          3.38180        1.28661        0.88126
H          3.20418        1.54163       -0.85845
H          5.27711        1.65540       -2.03426
H          6.78398        0.80321       -1.38042
H          5.44599        0.06583        1.79660
H          6.71945       -0.42674        0.67671
H          4.13955       -1.55438        0.58902
