18
-1773.89
N          1.45217        0.23400        0.66475
C          2.48304        0.48010       -0.34829
C          2.09154       -0.21076       -1.67618
C          3.16350       -0.12859       -2.73392
C          3.78148       -1.19113       -3.26727
C          2.61685        1.97227       -0.49455
C          3.74294        2.66096       -0.26561
H          1.76395        0.64153        1.54590
H          1.38115       -0.76846        0.83015
H          3.42467        0.04728        0.01332
H          1.17488        0.23703       -2.08205
H          1.85675       -1.26544       -1.47680
H          3.42862        0.86631       -3.08658
H          3.54688       -2.20478       -2.95957
H          4.53929       -1.06278       -4.03450
H          1.72495        2.51194       -0.80816
H          4.65880        2.17029        0.04871
H          3.76729        3.73925       -0.39010
