16

C	-0.989172	-0.047338	1.121717
C	-0.637651	1.00389	0.047999
C	0.866669	1.272398	-0.004415
C	1.611498	-0.036238	-0.010953
C	0.907484	-1.172204	-0.014545
C	-0.597444	-1.03145	-0.004174
N	-0.951817	0.009845	-1.024635
H	-0.428442	-0.072427	2.0704
H	-2.071781	-0.060808	1.321943
H	-1.216175	1.941003	0.014743
H	1.103206	1.848827	-0.916431
H	1.178751	1.89653	0.852731
H	2.706016	-0.030826	-0.023743
H	1.377944	-2.158715	-0.016968
H	-1.124285	-1.992872	-0.094564
H	-1.96766	-0.005076	-1.133315
