21
-2049.8
C          1.15462        3.37460       -1.22191
C          2.38179        2.47695       -1.20933
C          3.20080        2.66874        0.06738
C          4.41015        1.77681        0.07714
C          5.67285        2.22778        0.13192
C          6.88093        1.33567        0.15077
C          7.78459        1.60064       -1.04251
H          0.57914        3.21754       -2.13997
H          1.44012        4.43095       -1.17702
H          0.50080        3.15875       -0.37026
H          2.99791        2.69992       -2.08833
H          2.06112        1.43218       -1.29739
H          2.58600        2.42877        0.94323
H          3.49435        3.72130        0.16332
H          4.22140        0.70522        0.04561
H          5.86115        3.29903        0.17479
H          6.58899        0.27923        0.15427
H          7.43773        1.51724        1.07689
H          7.26012        1.41438       -1.98627
H          8.66040        0.94461       -1.00686
H          8.14009        2.63714       -1.04915
