13
-1322.1
O          1.36759        0.12648        1.16978
C          2.60046        0.05469        0.42599
C          2.65540        0.83349       -0.85771
N          3.95121        1.17263       -1.46735
C          4.46092       -0.04707       -1.84060
N          3.77708       -1.12197       -1.56801
C          2.56428       -0.69253       -0.88484
H          0.60909        0.38204        0.61885
H          3.51126       -0.03116        1.01016
H          1.80473        1.40161       -1.20533
H          4.04875        1.92844       -2.13500
H          5.40835       -0.02690       -2.40028
H          1.65494       -1.22904       -1.11641
