8
-825.76
O          1.06165        0.06012       -0.17648
S          2.47401       -0.02951        0.08600
O          3.17137       -0.67337        1.16806
C          3.08811       -0.87382       -1.33808
C          3.50529       -1.45178       -2.30741
C          3.06148        1.64500        0.07770
N          3.45965        2.74041        0.05049
H          3.87066       -1.97047       -3.16280
