10
-1126.87
O          0.99078       -0.11718       -0.07191
C          2.21384       -0.06531       -0.03736
C          2.92662        1.22478       -0.03829
C          4.26363        1.25054        0.00000
C          4.96663        2.46817        0.00000
C          5.56171        3.49888        0.00000
H          2.83839       -0.97354       -0.00409
H          2.31286        2.11706       -0.07098
H          4.84779        0.33544        0.03222
H          6.09285        4.42256       -0.00006
