12
-1219.91
C          0.96825       -0.11165        0.07264
C          2.36490        0.08129       -0.44492
O          2.83271       -0.61995       -1.33760
C          3.17843        1.19487        0.10574
C          2.59501        2.36860        0.85019
O          3.19782        1.27030        1.54331
H          0.32729        0.69682       -0.28890
H          0.96298       -0.13989        1.16516
H          0.57398       -1.06380       -0.29358
H          4.12032        1.35704       -0.40608
H          1.52279        2.48417        0.93074
H          3.13944        3.30520        0.83140
