16
-1571.09
C          0.84827        0.11736       -0.01254
C          2.33480       -0.00737       -0.12282
C          3.17869        0.99987        0.14831
C          4.66853        0.92616        0.06914
C          5.33498       -0.25748       -0.60088
N          5.33282        1.90790        0.61597
O          6.71573        1.71888        0.51825
H          0.46766       -0.60755        0.71287
H          0.38565       -0.08965       -0.98186
H          0.53805        1.11642        0.30778
H          2.69823       -0.98443       -0.42490
H          2.80071        1.96250        0.48253
H          4.67089       -0.75164       -1.31260
H          5.64430       -0.97427        0.16468
H          6.21354        0.06665       -1.16599
H          7.06567        2.51277        0.96316
