14

C	0.907382	0.081108	-0.009265
C	2.396592	0.053127	-0.002475
C	3.283905	1.086876	0.006789
O	4.53587	0.627817	0.009962
N	4.522171	-0.732279	0.00357
C	3.261485	-1.090108	-0.004402
C	2.871629	-2.530917	-0.014266
H	0.52922	1.112672	-0.003046
H	0.48994	-0.432185	0.871723
H	0.498218	-0.418492	-0.901935
H	3.166786	2.169716	0.011952
H	1.779275	-2.643039	-0.005169
H	3.280978	-3.052758	0.863288
H	3.263801	-3.036118	-0.909417
