17
-1649.78
C          2.03305       -1.94428        0.40408
C          3.13827       -0.99832       -0.02397
C          2.97613        0.32774        0.66359
N          2.74451        1.40213       -0.01802
N          2.63390        2.50224        0.82534
C          2.42585        3.57990        0.14214
C          2.26879        4.90112        0.82418
H          2.14736       -2.91380       -0.08996
H          1.04866       -1.53990        0.14629
H          2.05210       -2.10679        1.48686
H          3.12119       -0.85964       -1.10986
H          4.11290       -1.40869        0.25878
H          3.06311        0.33874        1.76488
H          2.35335        3.57284       -0.95980
H          2.37141        4.79882        1.90729
H          1.28242        5.30734        0.58500
H          3.03064        5.58765        0.44577
