19
-1761.46
C          0.97852       -0.08058        0.00163
N          2.42462        0.07912       -0.03307
C          2.92097        1.46712       -0.02961
C          2.50708        2.22366       -1.30338
C          2.45597        2.24215        1.21394
C          4.45802        1.37347        0.00425
H          0.73995       -1.14957       -0.00613
H          0.48980        0.36552       -0.86918
H          0.54057        0.33047        0.91562
H          2.79009       -0.40833       -0.85118
H          2.80067        1.67570       -2.20632
H          2.98692        3.20851       -1.34672
H          1.42539        2.39057       -1.34730
H          2.69673        1.69850        2.13507
H          1.37632        2.42744        1.20267
H          2.94796        3.22043        1.27247
H          4.80710        0.84207        0.89833
H          4.91577        2.36999        0.01496
H          4.84906        0.84332       -0.87303
