15

C	2.456321	-0.626106	-1.386303
C	2.334444	0.049238	-0.022819
C	2.941787	1.415803	0.017817
C	2.308423	2.605451	0.236348
O	3.179502	3.635389	0.186646
C	4.395226	3.117157	-0.070685
C	4.321266	1.762445	-0.187059
H	2.013193	-1.63344	-1.373092
H	3.510292	-0.727821	-1.688738
H	1.945612	-0.037893	-2.163816
H	2.816974	-0.582585	0.743049
H	1.27352	0.119269	0.266531
H	1.270647	2.85928	0.440101
H	5.215973	3.826994	-0.143034
H	5.14728	1.083708	-0.391946
