15
-1414.65
C          2.88758       -1.16089       -0.47807
N          2.34447        0.06492        0.09240
C          3.35841        1.12515        0.18533
C          3.56321        2.05231       -0.97887
C          2.91128        2.56211        0.27042
O          3.72298        3.41836        1.08817
H          2.09830       -1.91628       -0.54327
H          3.69485       -1.56520        0.14134
H          3.26809       -0.99017       -1.49044
H          1.97316       -0.13788        1.02104
H          4.23831        0.87029        0.77350
H          2.94005        1.92017       -1.85495
H          4.57674        2.36627       -1.19596
H          1.84402        2.75748        0.23806
H          3.61882        4.34783        0.82148
