17
-1603.51
C          0.79901        0.02624       -0.05189
C          2.29937       -0.20128        0.03263
C          3.06422        1.12132        0.03350
N          4.50588        0.91829        0.10275
N          5.08871        0.73051        1.38057
C          5.28140        0.66892       -1.02170
O          6.47039        0.36878       -1.00532
H          0.26876       -0.93146       -0.05003
H          0.53393        0.55928       -0.97090
H          0.44246        0.61343        0.80079
H          2.62054       -0.81973       -0.81355
H          2.52843       -0.76787        0.94259
H          2.76012        1.74990        0.87901
H          2.84443        1.67412       -0.88784
H          5.65478        1.56155        1.57386
H          5.79169       -0.01250        1.27687
H          4.71418        0.77751       -1.96102
