19
-1779.09
C          2.06523       -0.35182        1.52920
N          3.40995        0.20552        1.46407
C          3.64543        0.83438        0.16155
C          5.03285        1.45012        0.14584
C          5.23104        2.62759        1.06880
C          6.22088        0.55234       -0.13745
N          5.73499        1.47693       -1.15250
H          1.90358       -0.79632        2.51557
H          1.91861       -1.13432        0.77835
H          1.30665        0.42511        1.39051
H          4.08729       -0.54585        1.58987
H          2.90643        1.62284       -0.02410
H          3.54465        0.08927       -0.63819
H          6.19821        3.11718        0.91074
H          5.19339        2.30525        2.11399
H          4.44835        3.37522        0.91007
H          6.04723       -0.49832       -0.33506
H          7.17817        0.78270        0.31410
H          6.34025        2.29704       -1.22310
