12

N	0.975793	-0.033717	-0.000598
C	2.137075	-0.003194	-0.00016
C	3.554487	0.009739	0.000502
C	4.362201	1.104729	-0.004651
C	5.750228	0.672368	-0.001718
C	5.794975	-0.679372	0.00518
C	4.407848	-1.22591	0.007192
H	4.021053	2.140687	-0.010145
H	6.607162	1.347116	-0.00469
H	6.691374	-1.300379	0.008843
H	4.206623	-1.865723	-0.871681
H	4.205721	-1.856903	0.892217
