19
-1730.56
C          2.81799       -0.75291       -1.00911
N          2.58975       -0.00699        0.22304
C          3.08683        1.38842        0.12037
C          2.56232        2.20773        1.33882
N          3.00849        1.68872        2.64264
C          4.63140        1.47485        0.03868
O          5.26753        0.90045        1.17808
H          2.24163       -1.68406       -0.98455
H          3.87330       -1.02322       -1.13082
H          2.49208       -0.19401       -1.89422
H          3.11361       -0.46293        0.97217
H          2.66369        1.85237       -0.77446
H          1.46514        2.22513        1.32537
H          2.90169        3.24299        1.24291
H          2.49394        0.81741        2.81247
H          2.68179        2.32706        3.36999
H          4.94600        2.51990       -0.03576
H          5.00938        0.95758       -0.84884
H          4.73670        1.19795        1.95762
