16
-1582.09
O          1.08509        0.09763        0.29247
C          2.52537        0.04495        0.15445
C          3.10071       -0.92509       -0.93485
C          4.61531       -0.75675       -0.89974
C          4.67370        0.76708       -0.84052
C          3.17674        1.05098       -0.85679
N          2.57934        0.12470       -1.92354
H          0.79657        0.16079       -0.63990
H          2.99419       -0.01377        1.14202
H          2.67158       -1.92267       -1.02328
H          5.06484       -1.22079       -0.01624
H          5.10066       -1.15246       -1.79751
H          5.18881        1.19372       -1.70682
H          5.15400        1.12604        0.07488
H          2.82307        2.08193       -0.86560
H          3.07243        0.14022       -2.81709
