17
-1572.16
C          0.98319       -0.10069        0.11131
N          2.43503       -0.00622        0.14628
C          3.15535       -1.19823       -0.29069
C          3.09858        1.22195        0.17005
C          2.32717        2.47438        0.57195
N          4.35956        1.29683       -0.17463
O          4.84865        2.60684       -0.13552
H          0.57105        0.55431       -0.66359
H          0.55838        0.17775        1.08070
H          0.64229       -1.11874       -0.10620
H          2.63103       -2.11165        0.01046
H          4.15196       -1.24836        0.16104
H          3.25909       -1.20208       -1.38048
H          1.40821        2.23657        1.10978
H          2.07600        3.04079       -0.32945
H          2.93194        3.10027        1.23471
H          5.77889        2.48556       -0.39872
