15

C	0.994356	-0.152822	0.176909
C	2.471699	0.004683	-0.180525
C	2.951556	1.378371	-0.070923
C	3.320835	2.528329	0.036871
C	3.787936	3.910216	0.13576
N	2.836789	4.850126	-0.435412
H	0.681757	-1.203647	0.081737
H	0.361841	0.455596	-0.485764
H	0.803312	0.171496	1.210457
H	2.650136	-0.359163	-1.207529
H	3.085892	-0.638735	0.473016
H	4.806406	3.951869	-0.309643
H	3.92298	4.15725	1.203993
H	2.694263	4.639955	-1.421625
H	3.219451	5.792556	-0.39167
