15
-1613.54
C          0.85682        0.35715       -0.27712
C          2.30856        0.08728        0.01512
C          2.83693       -1.10950        0.33644
C          2.13800       -2.37086        0.43689
C          2.74847       -3.51072        0.78378
C          3.19846        1.20806       -0.04534
C          3.94056        2.15047       -0.09669
H          0.51605        1.24044        0.27538
H          0.19422       -0.46305        0.00757
H          0.71784        0.54965       -1.34635
H          3.90887       -1.15913        0.53557
H          1.07556       -2.40461        0.21545
H          3.80779       -3.55439        1.01558
H          2.18830       -4.43904        0.84365
H          4.59936        2.98617       -0.14171
