15

N	4.278223	1.640593	4.118553
C	4.109194	1.636988	2.857508
N	5.077401	1.223873	1.989765
C	4.959472	1.197573	0.575757
C	6.050563	1.841198	-0.302447
O	6.119383	0.680652	-1.122817
C	5.337182	-0.075718	-0.206051
H	3.439125	1.982076	4.584421
H	3.186283	1.958051	2.334004
H	5.945363	0.916586	2.416621
H	3.956098	1.557556	0.303922
H	6.990486	2.028693	0.253484
H	5.785718	2.751416	-0.866628
H	4.524169	-0.638209	-0.695957
H	5.945311	-0.780769	0.394735
