14
-1501.2
C          4.23055       -0.69147        2.67093
C          4.18773       -0.42075        1.50107
C          4.13409       -0.09042        0.07011
C          4.38528        1.39540       -0.18602
C          5.81904        1.81696        0.14399
C          6.03293        3.23561       -0.17138
N          6.20148        4.35590       -0.42424
H          4.26483       -0.93254        3.70841
H          3.14365       -0.35374       -0.31958
H          4.86263       -0.69528       -0.48195
H          3.67574        2.00210        0.39237
H          4.18236        1.60435       -1.24470
H          6.52687        1.20661       -0.42883
H          6.03417        1.65009        1.20514
