17

C	0.983804	0.220131	-0.309828
C	2.434844	0.167031	0.079218
N	3.289946	-0.919869	-0.379273
C	3.496131	0.415794	-0.921213
C	4.781837	1.084301	-0.573371
C	5.826422	1.350204	-1.586739
N	4.973349	2.424121	-1.10133
H	0.567757	1.227495	-0.150811
H	0.386072	-0.48711	0.287123
H	0.848676	-0.033577	-1.373601
H	2.640242	0.46714	1.115814
H	2.794879	-1.510783	-1.046358
H	3.156724	0.62937	-1.943879
H	5.13011	0.859739	0.443232
H	5.661336	1.054097	-2.62919
H	6.873599	1.305754	-1.265137
H	5.467712	3.015604	-0.436358
