21
-2069.4
C          0.97022        0.03520        0.15115
C          2.49394        0.01051        0.00183
C          2.98860       -1.33917       -0.53803
C          2.68062       -1.53953       -2.02118
C          3.19917       -0.38027       -2.86612
C          2.68974        0.96583       -2.36040
C          2.99622        1.16523       -0.87677
H          0.64230        0.98514        0.58691
H          0.63606       -0.76750        0.81731
H          0.45420       -0.08861       -0.80539
H          2.91372        0.14488        1.00716
H          2.55557       -2.16275        0.04221
H          4.07568       -1.39734       -0.39584
H          3.13681       -2.47493       -2.36535
H          1.59936       -1.64648       -2.16709
H          4.29586       -0.38196       -2.84990
H          2.89648       -0.52044       -3.90972
H          3.15299        1.77278       -2.94017
H          1.60922        1.03814       -2.53171
H          4.08351        1.25315       -0.75348
H          2.56776        2.11572       -0.53721
