19

C	2.860634	-0.962295	-0.430993
C	2.344349	0.177539	0.436837
C	3.364181	1.274819	0.570868
O	3.633806	2.056925	-0.580328
C	3.091403	2.722238	0.555295
C	1.699995	3.274566	0.380217
C	4.055984	3.651493	1.248514
H	2.114727	-1.765215	-0.531212
H	3.77626	-1.405924	-0.008035
H	3.105071	-0.593161	-1.438433
H	2.094797	-0.190208	1.447266
H	1.41398	0.577359	0.00841
H	4.275204	0.962086	1.108683
H	1.060299	2.593515	-0.194715
H	1.74622	4.230521	-0.165015
H	1.228719	3.465431	1.356712
H	5.052887	3.195426	1.326335
H	3.702601	3.903384	2.260204
H	4.152553	4.58972	0.679801
