16
-1549.57
C          1.18526       -0.28752        0.62774
C          2.50075        0.24940        0.07351
O          2.54129        0.03182       -1.34380
N          3.01110       -1.26705       -1.60652
C          3.08086       -1.42418       -2.88434
C          2.60197        1.73583        0.29364
C          3.55004        2.33424        1.02775
H          1.09387       -0.09414        1.70151
H          1.11225       -1.36843        0.46592
H          0.32608        0.16234        0.11660
H          3.34558       -0.26265        0.55247
H          3.43334       -2.37965       -3.30199
H          2.80164       -0.63515       -3.60296
H          1.84880        2.34914       -0.19587
H          4.32978        1.76547        1.52515
H          3.56755        3.41395        1.13807
