17

O	1.818327	0.161728	1.434447
C	2.070405	0.340869	0.059688
C	3.152389	1.367669	-0.045862
C	3.253547	2.375814	-1.151008
C	2.808391	2.808067	0.211472
C	3.666408	3.562788	1.184919
O	3.335425	3.216228	2.50261
H	1.148689	-0.519802	1.545276
H	1.170728	0.698027	-0.482634
H	2.387187	-0.605781	-0.422699
H	4.107697	1.033361	0.377789
H	2.503204	2.359654	-1.94701
H	4.256808	2.650352	-1.488416
H	1.737139	3.015252	0.323604
H	3.522016	4.652294	1.083543
H	4.735288	3.358861	0.955863
H	3.096533	2.279498	2.495218
