22
-2058.35
C          1.75224       -0.49928       -0.67972
C          3.20045       -0.12809       -0.40422
N          3.32534        1.32377       -0.28082
C          4.70808        1.71610       -0.01098
C          4.83990        3.24416        0.13755
C          6.27578        3.60769        0.52297
C          4.44391        3.98502       -1.14229
H          1.65490       -1.58522       -0.78213
H          1.39510       -0.04015       -1.60770
H          1.09666       -0.17825        0.13670
H          3.82394       -0.49280       -1.22788
H          3.52868       -0.62218        0.51778
H          2.72124        1.65821        0.47047
H          5.35835        1.37244       -0.82518
H          5.05286        1.23646        0.91421
H          4.17988        3.58156        0.94743
H          6.98629        3.29697       -0.25083
H          6.56187        3.12065        1.46128
H          6.37952        4.68880        0.66385
H          5.05853        3.66638       -1.99120
H          4.57309        5.06591       -1.01940
H          3.39415        3.80848       -1.39738
