18
-1780.5
C          1.02712        0.08176        0.15650
C          2.52232       -0.12678        0.22705
C          3.01021       -1.46175        0.54959
C          2.25626       -2.54345        0.78946
C          3.33980        0.92640        0.01056
C          4.83441        0.98311        0.01512
N          5.29182        1.81173       -1.09472
H          0.76299        1.11402       -0.09827
H          0.55884       -0.14096        1.12167
H          0.58200       -0.56019       -0.61155
H          4.08586       -1.60104        0.61556
H          1.17284       -2.52962        0.76152
H          2.72536       -3.49311        1.02989
H          2.87565        1.89428       -0.18428
H          5.30092        0.00010       -0.07204
H          5.16916        1.43505        0.95397
H          5.06378        1.33831       -1.96899
H          6.30834        1.87050       -1.06400
