15

C	-0.086188	1.466111	0.611913
C	-1.388045	0.735783	0.250069
C	-1.472321	-0.508195	-0.27824
C	-0.286741	-1.446653	-0.545804
C	0.750677	-0.76037	0.300873
O	2.033092	-0.176691	0.118437
C	0.883326	0.611015	-0.158128
H	0.08547	1.455185	1.701842
H	-0.131393	2.521401	0.293552
H	-2.323323	1.285828	0.401495
H	-2.471762	-0.896426	-0.50284
H	-0.530618	-2.477583	-0.238412
H	-0.033978	-1.47201	-1.619447
H	0.531483	-0.877113	1.371644
H	0.769869	0.756408	-1.241664
