14
-1346.96
C          0.84890       -0.38999        0.09299
C          2.35421       -0.20686        0.07199
C          2.69348        1.23557       -0.17550
N          3.33103        1.59158       -1.24293
N          3.53245        2.96734       -1.25674
C          4.20050        3.31626       -2.30363
H          0.59405       -1.43751        0.27961
H          0.40430       -0.09179       -0.86204
H          0.38966        0.21989        0.87790
H          2.80318       -0.83416       -0.70516
H          2.78002       -0.49332        1.03909
H          2.37462        1.96662        0.58927
H          4.44678        4.37634       -2.46869
H          4.55010        2.59637       -3.06335
