13
-1336.97
N          1.06310       -0.23912       -0.40873
C          2.28876       -0.18185        0.16872
O          2.53640       -0.75304        1.21915
N          3.16324        0.57005       -0.55346
C          4.47439        0.83492       -0.01625
C          5.27649        1.56046       -1.00541
C          5.93119        2.15667       -1.81727
H          1.04110       -0.27062       -1.41760
H          0.43400       -0.88522        0.05187
H          2.73818        1.30759       -1.09439
H          4.94648       -0.11588        0.25389
H          4.35668        1.42507        0.89911
H          6.51411        2.68290       -2.53746
