13

C	1.002141	-0.015104	-0.106384
C	2.49076	-0.126878	-0.030674
C	3.156568	-1.288627	-0.055527
C	3.199506	1.186181	0.178406
N	4.475569	1.263415	-0.288169
O	2.651986	2.112599	0.744351
H	0.695614	0.561617	-0.994578
H	0.635203	0.546772	0.765925
H	0.520602	-1.001143	-0.141331
H	2.629385	-2.240948	-0.162418
H	4.242011	-1.337718	0.068934
H	4.846733	0.577011	-0.927887
H	4.955211	2.148374	-0.187397
