16
-1595.95
C          0.98691       -0.09009        0.00872
C          2.50639       -0.03746        0.01502
C          3.01766        1.40310       -0.00066
C          4.54553        1.45144        0.00097
C          5.03229        2.83848        0.00110
C          5.43378        3.97130        0.00204
H          0.64364       -1.12927        0.02363
H          0.58155        0.38868       -0.88838
H          0.57296        0.41700        0.88611
H          2.88841       -0.57814       -0.85871
H          2.88002       -0.55515        0.90617
H          2.62800        1.94100        0.87325
H          2.63117        1.92167       -0.88757
H          4.93458        0.92773       -0.88009
H          4.93330        0.92863        0.88310
H          5.78926        4.97535        0.00307
