18
-1705.39
C          1.88706       -0.57837       -0.96401
O          1.73866        0.72475       -0.41915
C          2.99859        1.38011       -0.17546
C          3.33457        2.51784       -1.09994
C          2.87930        2.80290        0.30824
C          3.82796        3.31246        1.34033
N          3.74512        4.76372        1.35835
H          0.89262       -0.98428       -1.16730
H          2.39270       -1.23048       -0.24553
H          2.45176       -0.53947       -1.90019
H          3.81821        0.78978        0.22394
H          2.64385        2.74034       -1.90517
H          4.37636        2.67130       -1.35326
H          1.87282        3.18056        0.45710
H          4.85809        3.00254        1.13172
H          3.55028        2.91690        2.32281
H          4.02453        5.12829        0.44965
H          4.41104        5.13033        2.03507
