17
-1650.21
C          1.08465        0.06245       -0.11804
C          2.57804       -0.12625       -0.01483
C          3.02945       -1.56120       -0.06948
O          2.52835       -2.25244        1.06496
C          3.39118        0.94469        0.09384
C          4.88116        0.97807        0.19952
O          5.38612        1.69750       -0.91376
H          0.79915        1.11996       -0.12176
H          0.57760       -0.41257        0.72775
H          0.70931       -0.38321       -1.04536
H          4.11454       -1.67885       -0.08096
H          2.64256       -2.04836       -0.97069
H          2.74050       -1.70887        1.84296
H          2.93920        1.93705        0.11733
H          5.35102       -0.00661        0.21562
H          5.17728        1.50545        1.11135
H          5.02369        1.27599       -1.71152
