13
-1337.15
N          1.06228       -0.15655       -0.00740
N          2.41308       -0.01510        0.00785
C          2.87502        1.18735       -0.14794
C          2.11505        2.44996       -0.37136
C          2.69450        3.65389       -0.46444
C          4.32098        1.14123       -0.07507
C          5.52110        1.10003       -0.01482
H          0.84117       -1.13863       -0.19683
H          0.69169       -0.00283        0.93497
H          1.03997        2.35067       -0.46621
H          3.76659        3.79733       -0.37944
H          2.08952        4.53930       -0.63348
H          6.58319        1.05032        0.03846
