17

C	0.265034	-0.061555	1.058234
C	1.658858	-0.61138	0.872879
O	1.917019	-1.774054	1.072623
C	2.717972	0.373277	0.419266
C	4.113659	-0.230307	0.337568
C	5.127719	0.734918	-0.188344
C	6.206427	1.157703	0.472393
H	0.263207	0.708643	1.846699
H	-0.419876	-0.872605	1.334532
H	-0.085656	0.425108	0.134288
H	2.70204	1.244814	1.098152
H	2.399607	0.775271	-0.560719
H	4.065669	-1.121842	-0.311016
H	4.411024	-0.600885	1.330689
H	4.944078	1.120711	-1.200484
H	6.430172	0.802337	1.483793
H	6.909948	1.867137	0.027748
