15
-1458.51
O          3.06696       -1.00220       -0.58130
C          2.38846        0.05143        0.09768
C          3.20414        1.33765        0.00583
C          3.35224        1.85418       -1.41766
C          3.19403        3.31533       -1.16229
N          2.76803        3.63790        0.01506
N          2.54671        2.46934        0.66470
H          2.51223       -1.79692       -0.49204
H          2.25679       -0.24526        1.14380
H          1.39821        0.17196       -0.35587
H          4.20373        1.18347        0.43197
H          2.56547        1.52881       -2.10440
H          4.33687        1.65002       -1.84511
H          3.41807        4.05000       -1.94830
H          2.76675        2.53291        1.66013
