11

N	1.048748	-0.04057	-0.15048
C	2.468607	-0.074468	0.01474
C	3.266442	-0.749511	-1.061563
C	3.287987	0.745876	-0.937189
H	0.645239	0.744802	0.356266
H	0.621728	-0.885833	0.223218
H	2.879606	-0.165551	1.033884
H	2.694295	-1.174035	-1.890737
H	4.158003	-1.313593	-0.775457
H	4.194943	1.22836	-0.563563
H	2.730593	1.317844	-1.683569
