17

C	-1.207248	-0.001436	0.98493
C	-0.637758	-1.013513	-0.022505
C	0.865351	-1.213074	0.234804
N	1.618163	-0.000621	-0.056153
C	0.865854	1.211357	0.238069
C	-0.637336	1.013113	-0.019778
N	-0.744009	0.001294	-1.118014
H	-0.819308	-0.002903	2.018518
H	-2.308526	-0.001232	1.002172
H	-1.166086	-1.967185	-0.183856
H	1.012622	-1.525477	1.284983
H	1.261195	-2.023135	-0.396905
H	1.776645	0.000706	-1.059622
H	1.262032	2.022952	-0.391454
H	1.013254	1.520876	1.289081
H	-1.16527	1.967437	-0.178567
H	-1.707343	0.001941	-1.454592
