13
-1306.67
O          1.13253       -0.56578       -0.74931
C          2.22322       -0.30233       -0.26223
N          3.10901        0.57005       -0.82959
C          4.36364        0.91434       -0.25546
C          5.54733       -0.00500       -0.37204
C          5.52356        1.28544       -1.13774
H          2.58488       -0.74711        0.67935
H          2.79973        1.00996       -1.68855
H          4.26494        1.47576        0.67136
H          5.43565       -0.92677       -0.93120
H          6.21826       -0.07922        0.47601
H          6.17603        2.08542       -0.80700
H          5.40068        1.23014       -2.21312
