17

O	1.553095	-0.316404	0.580131
C	2.849729	-0.231566	0.041018
C	3.221836	1.206045	-0.106415
C	4.364505	1.740517	0.333414
C	4.811918	3.140607	0.148312
C	5.552466	3.546876	-1.105095
C	4.174836	4.072929	-0.836695
H	1.271386	-1.235099	0.539953
H	2.894599	-0.713158	-0.959955
H	3.60244	-0.746144	0.67316
H	2.479882	1.826754	-0.622269
H	5.067734	1.0945	0.877055
H	5.190214	3.604736	1.06706
H	5.662348	2.787402	-1.884691
H	6.405665	4.22367	-1.006333
H	4.063818	5.120803	-0.546434
H	3.355539	3.695133	-1.453376
