13
-1302.65
C          1.79384       -0.64672        0.77825
O          3.06810       -0.30611        0.24313
N          3.27332        1.06936        0.42397
C          4.44369        1.37399       -0.03446
C          4.94237        2.78518        0.00862
C          6.19278        2.84203        0.76453
N          7.19549        2.88867        1.34596
H          1.63621       -1.71943        0.63930
H          1.00435       -0.10233        0.25112
H          1.75958       -0.42025        1.84835
H          5.10546        0.61458       -0.49011
H          4.18504        3.43607        0.45692
H          5.10904        3.11206       -1.02274
