17
-1779.67
C          0.83828       -0.01744        0.01527
C          2.18376       -0.02032        0.00647
C          2.92950        1.29092       -0.06341
C          4.46448        1.26375       -0.03367
C          5.10774       -0.08159       -0.02130
C          4.41900       -1.22789        0.01755
C          2.92795       -1.33063        0.05345
H          0.27265        0.90901       -0.02363
H          0.26846       -0.94115        0.05827
H          2.59086        1.92833        0.76536
H          2.62256        1.81012       -0.98215
H          4.81201        1.81768        0.84735
H          4.84140        1.81748       -0.90264
H          6.19405       -0.11178       -0.03979
H          4.96473       -2.16837        0.02967
H          2.61451       -1.94981       -0.79661
H          2.65090       -1.86628        0.97045
