16

C	1.072784	0.498043	-0.96129
O	0.556276	1.367391	0.021689
C	0.55307	-0.015543	0.30711
C	1.465675	-0.469874	1.408661
C	0.939008	-0.458366	2.858356
C	1.571646	-1.855383	2.979719
N	1.617068	-1.921126	1.517337
H	0.474555	0.396234	-1.876136
H	2.15945	0.547261	-1.118639
H	-0.436516	-0.496361	0.309847
H	2.418177	0.093476	1.327342
H	-0.160075	-0.487442	2.895792
H	1.304014	0.335698	3.523132
H	2.563908	-1.819904	3.471365
H	0.976784	-2.647423	3.466241
H	2.443466	-2.33308	1.091652
