17
-1638.39
N          1.06520       -0.13519       -0.04987
C          2.48373        0.13774       -0.00079
C          3.33699       -0.57088       -1.06488
N          4.44580       -0.35713       -0.00580
C          3.30491       -0.72661        0.96992
C          4.50717        1.13681        0.10890
C          3.02776        1.53031        0.10742
H          0.54939        0.22352        0.75345
H          0.83228       -1.12644       -0.11182
H          3.49465       -0.04728       -2.01463
H          3.11846       -1.62474       -1.27985
H          3.08194       -1.80018        1.01485
H          3.42870       -0.35366        1.99271
H          5.01026        1.43557        1.03443
H          5.04763        1.57046       -0.73879
H          2.76936        2.15758       -0.75183
H          2.73487        2.03130        1.03575
