15
-1431.46
N          1.03145        0.10682        0.14691
C          2.46603        0.13811       -0.14183
C          2.72455       -0.54370       -1.45048
C          3.58334       -1.55878       -1.62129
C          2.90431        1.58931       -0.25308
N          3.76848        2.09552        0.57137
O          3.97099        3.44174        0.24271
H          0.87874        0.55406        1.05132
H          0.75551       -0.86639        0.27400
H          3.01484       -0.34063        0.67728
H          2.16959       -0.18014       -2.31388
H          4.16369       -1.96278       -0.79731
H          3.72237       -2.00836       -2.60011
H          2.43949        2.19904       -1.04998
H          4.63638        3.72122        0.89908
