14
-1476.61
C          0.99596        0.00628       -0.00807
N          2.44053       -0.00271       -0.00036
C          3.24449        1.10814        0.00345
C          4.55654        0.68183        0.01077
C          4.52347       -0.72306        0.01121
O          5.58046       -1.54448        0.01730
C          3.21508       -1.13620        0.00430
H          0.63552        1.03803        0.00211
H          0.64393       -0.52034        0.88250
H          0.65412       -0.49955       -0.91452
H          2.82827        2.10694        0.00068
H          5.43432        1.31325        0.01523
H          5.28097       -2.46863        0.01609
H          2.76698       -2.11994        0.00227
