18

C	1.194536	0.362349	-0.185251
O	2.576445	0.343504	-0.022956
C	3.165857	1.606758	-0.115346
C	4.640726	1.472951	0.125112
C	5.601789	1.19875	-0.970969
N	5.48314	2.51703	-0.395704
C	6.561549	2.995897	0.429755
H	0.827396	-0.670063	-0.096851
H	0.895464	0.755786	-1.178471
H	0.690535	0.980599	0.585686
H	2.72623	2.303827	0.631048
H	3.003114	2.063583	-1.113385
H	4.90069	1.049699	1.10684
H	5.247711	1.080659	-2.001375
H	6.486406	0.598917	-0.716606
H	6.187238	3.771274	1.116255
H	7.336662	3.453771	-0.204381
H	7.043432	2.200599	1.038669
