12

C	2.797697	-1.215829	0.407248
C	2.295658	0.000465	0.157184
C	3.039199	1.249584	0.128929
C	2.536862	2.513218	-0.111205
C	3.569591	3.484789	-0.058947
N	4.780552	3.047156	0.196981
S	4.740215	1.403184	0.39262
H	2.157707	-2.100545	0.405334
H	3.85913	-1.372657	0.623598
H	1.225388	0.1051	-0.05227
H	1.48601	2.723713	-0.313374
H	3.424411	4.558111	-0.216949
