11
-1210.11
O          0.93358       -0.03291        0.00836
C          2.30214       -0.00399       -0.00214
C          3.02245        1.11566       -0.00431
C          2.48597        2.47377        0.00393
N          3.46481        3.32305       -0.00115
C          4.58797        2.51335       -0.01233
N          4.38704        1.22703       -0.01461
H          0.65210       -0.96654        0.00734
H          2.76289       -0.98312       -0.00867
H          1.40844        2.68190        0.01293
H          5.59613        2.95735       -0.01888
