10
-1161.81
C          0.97385       -0.02250       -0.00604
C          2.47271       -0.07712        0.00144
O          3.11058       -1.12160        0.00586
C          3.17711        1.18223        0.00016
C          3.77585        2.22295       -0.00033
C          4.54215        3.55125       -0.00058
N          5.11047        4.56205       -0.00068
H          0.61417        1.01022        0.00880
H          0.59146       -0.53849        0.87860
H          0.60125       -0.51053       -0.91046
