18
-1756.73
C          1.01711       -1.02255        0.54954
C          2.35336       -0.73592       -0.14177
C          3.08019       -2.05340       -0.41767
N          2.08128        0.01310       -1.37374
C          3.28682        0.55481       -1.99491
C          2.90792        1.39778       -3.13780
C          2.59414        2.08311       -4.07341
H          0.49270       -0.09227        0.79518
H          1.17503       -1.56782        1.48661
H          0.35768       -1.62667       -0.08395
H          2.95710       -0.12626        0.54180
H          2.54276       -2.66015       -1.15508
H          3.16966       -2.64553        0.49994
H          4.09488       -1.88320       -0.79115
H          1.45728        0.79219       -1.16559
H          3.93687       -0.24972       -2.35239
H          3.85479        1.15776       -1.27554
H          2.30878        2.68336       -4.90579
