12

C	0.92518	-0.21809	0.119279
C	2.387805	0.118017	-0.084451
C	2.643597	1.585537	-0.26162
O	1.797559	2.446387	-0.241797
C	4.097249	2.011384	-0.486505
O	5.013314	1.23804	-0.528531
H	0.784358	-1.300489	0.247972
H	0.321716	0.109863	-0.739874
H	0.523754	0.291393	1.007407
H	2.822423	-0.396862	-0.96036
H	3.020095	-0.221671	0.756266
H	4.21312	3.118361	-0.608946
