20
-1915.62
C          1.56897        0.40001       -1.42863
N          3.01063        0.47850       -1.24315
C          3.34352        1.24587       -0.04433
C          4.84534        1.31399        0.13827
C          5.51829       -0.01529        0.36746
C          5.48663        2.50043        0.12585
C          6.95492        2.75220        0.26858
H          1.34857       -0.18703       -2.32569
H          1.12510        1.39234       -1.55872
H          1.08687       -0.09984       -0.58216
H          3.42963        0.94296       -2.04796
H          2.90524        0.77491        0.84386
H          2.91716        2.25389       -0.11750
H          4.94737       -0.60968        1.08930
H          6.52707        0.07984        0.77647
H          5.58336       -0.57826       -0.56895
H          4.89947        3.40660       -0.02133
H          7.56119        1.84698        0.20606
H          7.15650        3.24252        1.22533
H          7.28798        3.41998       -0.53253
