17

C	-1.670017	0.624657	0.180692
N	-1.630905	-0.787919	-0.331375
C	-0.186031	-0.761501	0.051876
C	1.15955	-1.149563	-0.523079
N	1.987647	-0.035185	0.004411
C	1.169199	1.065359	0.579736
C	-0.15158	0.733513	-0.07579
H	-2.340266	1.309698	-0.360389
H	-1.942479	0.622193	1.248758
H	-1.704023	-0.749735	-1.350721
H	-0.166294	-1.029479	1.126306
H	1.548763	-2.123262	-0.186265
H	1.150381	-1.155674	-1.630086
H	2.709704	-0.354898	0.638213
H	1.09455	1.024129	1.68396
H	1.591822	2.04508	0.303156
H	-0.049302	0.960447	-1.15358
