16
-1657.91
N          1.04178        0.03092        0.14447
C          2.49425       -0.02803       -0.03083
C          2.90902       -1.25452       -0.87543
C          3.38390       -0.66883       -2.16972
C          3.43372        0.66698       -2.12271
C          3.00071        1.14986       -0.83305
C          3.08137        2.42355       -0.43132
H          0.80705        0.86629        0.67552
H          0.73487       -0.76623        0.69618
H          2.97628       -0.06917        0.95277
H          2.08448       -1.95758       -1.03838
H          3.72631       -1.80072       -0.38918
H          3.66382       -1.26401       -3.02719
H          3.76108        1.30588       -2.93032
H          2.75479        2.71806        0.56038
H          3.47458        3.19991       -1.07997
