14
-1470.43
O          0.88967       -0.09535       -0.07469
C          2.11677       -0.03824       -0.04664
C          2.87777        1.26113        0.19121
N          4.22082        1.21195       -0.40555
C          4.99438        0.07052        0.07023
C          4.23792       -1.21718       -0.03444
C          2.90379       -1.29342       -0.12782
H          2.31936        2.07185       -0.28752
H          2.92803        1.45255        1.26829
H          4.71698        2.07378       -0.18466
H          5.31919        0.22219        1.10599
H          5.89722       -0.00362       -0.54598
H          4.82307       -2.13257       -0.04169
H          2.35870       -2.22344       -0.21628
