15
-1443.84
C          0.96482       -0.07399        0.12581
C          2.47392       -0.00234       -0.05737
C          3.01992       -1.17862       -0.89624
N          3.59518       -0.61337       -2.15183
C          3.46460        0.66764       -1.98874
N          2.80648        1.14979       -0.88868
O          3.55464        2.12100       -0.21837
H          0.59718        0.81048        0.65670
H          0.68625       -0.96075        0.70363
H          0.44483       -0.11784       -0.83796
H          2.97110        0.03633        0.91929
H          2.24602       -1.91512       -1.14229
H          3.81677       -1.69435       -0.35021
H          3.83776        1.42454       -2.69793
H          2.91075        2.84567       -0.09574
