18
-1762.7
C          1.10618       -0.20691       -0.03932
N          2.56713       -0.21217       -0.05034
C          3.14081       -0.62927       -1.32586
C          3.13499        0.82671       -0.91138
C          4.40169        1.50725       -0.47553
C          5.01182        2.37968       -1.54006
C          5.18614        3.70089       -1.41759
H          0.74703        0.54875        0.66637
H          0.73993       -1.18051        0.30086
H          0.64847        0.00066       -1.01452
H          2.47350       -0.94734       -2.11733
H          4.06610       -1.18793       -1.25928
H          2.44306        1.50896       -1.39465
H          5.15249        0.76600       -0.17355
H          4.18070        2.10423        0.41905
H          5.32928        1.88456       -2.45489
H          4.88963        4.23620       -0.52022
H          5.63580        4.28019       -2.21932
