18

C	1.517006	-0.445503	-0.625005
C	2.83663	-0.447964	0.130629
C	3.740223	0.724639	-0.253416
C	5.034061	0.752216	0.50296
C	5.044079	1.013703	1.978356
N	6.098707	0.527182	-0.168548
O	7.225583	0.554086	0.620407
H	0.885947	-1.30155	-0.340329
H	1.681215	-0.498374	-1.713391
H	0.943069	0.474061	-0.423317
H	3.380829	-1.388708	-0.062233
H	2.641653	-0.428409	1.217111
H	3.199896	1.672733	-0.071928
H	3.972641	0.682648	-1.328845
H	4.041591	1.253048	2.356571
H	5.728473	1.844889	2.208777
H	5.433325	0.138063	2.522162
H	7.932913	0.38344	-0.009152
