12

O	3.002174	-0.760513	-0.855455
C	2.168184	0.02808	-0.053443
C	2.774878	1.393547	0.087153
N	2.085952	2.351896	0.665583
S	2.992291	3.73433	0.709107
C	4.350388	3.047828	-0.06927
C	4.085823	1.734383	-0.358177
H	2.608382	-1.632818	-0.939825
H	2.039752	-0.395535	0.963498
H	1.152199	0.146159	-0.477377
H	5.25695	3.616392	-0.278869
H	4.758327	1.038032	-0.855624
