13
-1367.67
C          0.99964       -0.24903       -0.20742
C          2.27241       -0.26595        0.20587
C          3.19268        0.85165       -0.12547
O          2.86607        1.83055       -0.78289
C          4.58251        0.68470        0.34899
C          5.19735        1.72620        1.24900
O          4.73756        0.47042        1.76236
H          0.32452       -1.06343        0.03388
H          0.60178        0.57668       -0.79232
H          2.66667       -1.08760        0.79228
H          5.24630        0.15559       -0.32260
H          4.62045        2.61250        1.48365
H          6.26630        1.88519        1.19048
