18
-1764.01
C          3.04877       -1.46034        1.27807
C          2.79425       -0.60387        0.06805
C          2.11520       -1.07446       -0.99329
C          3.31180        0.81661        0.13119
N          4.77300        0.84458        0.26447
C          5.47408        1.18544       -0.97059
C          5.33657        2.18569        0.14768
H          4.12101       -1.62735        1.41853
H          2.56968       -2.44142        1.19365
H          2.65005       -0.97606        2.17542
H          1.74168       -2.09333       -1.01883
H          1.92291       -0.45773       -1.86468
H          2.86782        1.30034        1.01214
H          2.95405        1.39067       -0.73563
H          4.89995        1.33497       -1.87685
H          6.43557        0.70688       -1.11095
H          6.20559        2.38268        0.76412
H          4.66101        3.02198        0.01916
