15
-1443.15
N          2.99864       -1.22070        0.57762
C          2.56732       -0.26891       -0.27632
S          0.99488       -0.24046       -0.80421
N          3.46164        0.67539       -0.66629
C          4.80738        0.81620       -0.21447
C          5.91270       -0.02209       -0.79519
C          5.84214        1.44279       -1.10902
H          3.98612       -1.37743        0.71528
H          2.36642       -1.97399        0.81604
H          3.08434        1.39272       -1.27760
H          4.87267        1.06611        0.84231
H          5.66692       -0.72129       -1.58623
H          6.69706       -0.36055       -0.12870
H          6.57640        2.09675       -0.65291
H          5.55809        1.72860       -2.11510
