17

C	0.567133	0.490825	0.375215
O	1.741681	0.492184	-0.393538
C	2.811028	1.202451	0.160025
C	3.489418	0.446878	1.275685
O	3.885079	-0.824019	0.848059
C	3.623241	1.961471	-0.831616
C	2.750094	2.698546	0.153113
H	0.685221	-0.047353	1.333769
H	-0.207512	-0.019926	-0.21368
H	0.222524	1.516865	0.598863
H	2.8077	0.392412	2.151805
H	4.382191	0.999779	1.608518
H	3.177006	-1.138599	0.270916
H	3.277538	1.917021	-1.867317
H	4.708745	1.983074	-0.700903
H	3.22104	3.246447	0.974752
H	1.835754	3.155384	-0.235015
