9
-860.01
C          0.98984       -0.00205        0.00168
N          2.42702        0.04074        0.00381
C          3.14506        1.19730       -0.07031
O          4.35726        1.23882        0.08440
H          0.67016       -0.95581       -0.42409
H          0.58333        0.82749       -0.58282
H          0.64009        0.07568        1.03433
H          2.95979       -0.77824        0.27306
H          2.53796        2.08946       -0.29476
