15
-1466.67
C          1.10782       -0.02432        0.32255
N          2.56771       -0.02985        0.36751
C          3.10954        1.23741       -0.17373
C          4.64345        1.31710       -0.00096
O          4.97123        0.97293        1.35480
C          5.32949        0.43023       -0.95978
N          5.83560       -0.27069       -1.73598
H          0.72888       -0.97284        0.71540
H          0.73945        0.08834       -0.70227
H          0.69628        0.77786        0.94336
H          2.89913       -0.81273       -0.20444
H          2.67046        2.06384        0.39933
H          2.82850        1.36293       -1.22631
H          4.97347        2.34872       -0.16327
H          4.30095        0.30401        1.60920
