19
-1919.85
C          0.81116        0.03053        0.11078
C          2.14624        0.07861        0.20674
C          3.01121        1.30896        0.17400
C          2.31382        2.67015        0.13497
C          3.44077        3.63622        0.46881
C          4.28308        2.90781        1.51225
C          3.90252        1.42909        1.41616
H          0.29089       -0.92230        0.14022
H          0.20187        0.92076       -0.00195
H          2.68140       -0.86560        0.30521
H          3.65973        1.22808       -0.70975
H          1.52807        2.74255        0.89696
H          1.86879        2.88566       -0.84133
H          4.04547        3.82892       -0.42567
H          3.06912        4.59838        0.83380
H          5.35108        3.06131        1.32595
H          4.06860        3.28573        2.51807
H          4.79021        0.79152        1.34015
H          3.36286        1.13025        2.32388
