15
-1523.62
O          2.49975       -0.88311       -1.04873
C          2.21862       -0.05574        0.07637
C          2.94588        1.28157       -0.06342
C          4.44148        1.12593        0.03382
C          5.20075        1.77567        0.92627
C          6.66259        1.57309        0.95337
O          7.37108        2.16379        1.76000
H          2.00364       -1.71061       -0.92424
H          2.52245       -0.58319        0.98689
H          1.13721        0.11165        0.11027
H          2.58121        1.96934        0.70795
H          2.71680        1.72322       -1.04019
H          4.88929        0.44229       -0.68634
H          4.79994        2.47065        1.65514
H          7.07442        0.86580        0.21465
