12

O	1.497141	0.31893	0.563967
C	2.483285	0.006797	-0.018524
O	2.581107	-1.125731	-0.763289
C	3.890049	-1.303226	-1.272255
C	4.598205	-0.005867	-0.935682
C	3.980829	1.248142	-1.40194
N	3.709591	0.734798	-0.053958
H	4.36698	-2.156976	-0.764965
H	3.833419	-1.518163	-2.350618
H	5.6563	-0.040161	-0.659429
H	4.563045	2.173293	-1.430952
H	3.174819	1.184774	-2.143424
