13

C	1.135574	0.085676	0.005637
C	2.616014	0.16231	0.000437
C	3.515398	1.1936	-0.000136
C	3.315006	2.664921	0.004199
N	4.756546	0.61063	-0.005425
N	4.664127	-0.639207	-0.007816
O	3.317544	-0.970934	-0.004276
H	0.811758	-0.962529	-0.008704
H	0.710975	0.593578	-0.873517
H	0.71839	0.566506	0.903481
H	2.245999	2.916863	-0.001639
H	3.78347	3.128523	-0.877311
H	3.771799	3.122244	0.89519
