17
-1718.92
O          1.10303        0.15428        0.19062
C          2.49615       -0.02587       -0.01508
C          2.77929       -1.47311       -0.43493
C          2.60941       -1.47541       -1.96053
C          3.06096       -0.10445       -2.37901
C          2.11317        1.06114       -2.40356
C          2.96191        0.80008       -1.18347
H          0.95354        1.11258        0.25258
H          3.02221        0.22867        0.91006
H          2.12239       -2.20316        0.04715
H          3.82088       -1.72289       -0.19667
H          3.21174       -2.26271       -2.42343
H          1.56093       -1.63688       -2.23449
H          3.96274       -0.08643       -2.97392
H          2.37147        1.90904       -3.02823
H          1.04868        0.85941       -2.35907
H          3.79867        1.44716       -0.96037
