19
-1775.04
C          4.00913       -1.19869        1.42957
O          4.72618       -0.29996        0.59481
C          3.84435        0.46930       -0.22374
C          4.64365        1.39815       -1.15192
C          5.52721        0.58710       -2.10038
O          3.69683        2.19616       -1.87702
C          4.28178        3.29299       -2.56445
H          4.73015       -1.76506        2.02598
H          3.42776       -1.90266        0.82591
H          3.34931       -0.64889        2.10792
H          3.18477        1.07084        0.41409
H          3.20657       -0.19599       -0.81920
H          5.27820        2.04526       -0.53368
H          4.91639       -0.00292       -2.79242
H          6.19213       -0.08780       -1.55400
H          6.15462        1.24333       -2.71110
H          3.47485        3.93119       -2.93515
H          4.86061        2.94744       -3.42437
H          4.91219        3.88641       -1.89404
