11

C	0.958451	-0.011882	-0.029335
C	2.437208	0.086879	-0.137377
C	3.18415	1.152793	0.190615
C	4.644045	1.136439	0.039739
O	5.37273	2.057983	0.313815
H	0.671932	-0.850611	0.62732
H	0.510076	-0.226741	-1.013828
H	0.509731	0.910625	0.364955
H	2.95888	-0.800937	-0.523556
H	2.74278	2.076121	0.581876
H	5.055848	0.171692	-0.363744
