11

C	2.090647	0.037641	0.563303
O	1.462036	0.452965	-0.709389
C	2.149525	1.645682	-0.5982
C	2.541701	2.904402	-0.986283
N	3.405107	3.263847	0.036234
N	3.57852	2.352712	1.00649
C	2.799459	1.376041	0.586855
H	2.710742	-0.858625	0.413132
H	1.324435	-0.138453	1.333067
H	2.334545	3.573969	-1.81669
H	3.899102	4.143278	0.106491
