16
-1613.21
C          1.82843        0.04315       -0.44485
C          0.85474        0.93264        0.27947
C         -0.60775        1.07897       -0.05286
C         -1.38100        0.05978        0.88540
C         -0.47258       -0.93473        0.04610
C         -0.93108       -0.00163       -1.14868
N          0.90855       -0.54584        0.50486
H          1.70922       -0.18894       -1.49441
H          2.86664        0.08286       -0.13311
H          1.15676        1.52549        1.13225
H         -1.02390        2.07782       -0.17860
H         -1.17794        0.13085        1.95883
H         -2.46428       -0.02030        0.73750
H         -0.72296       -1.99464        0.03559
H         -1.98182       -0.08968       -1.45302
H         -0.32744        0.00611       -2.05907
