12

C	-1.317551	0.645312	0.242705
O	-1.473664	-0.757448	0.165537
C	-0.382434	-1.485255	0.378294
C	0.898776	-1.056153	0.428762
C	1.421663	0.270431	0.15091
N	0.874529	1.31233	-0.36113
O	-0.463566	1.186542	-0.704889
H	-2.315667	1.055865	0.04653
H	-0.972791	0.905889	1.259634
H	-0.625157	-2.538233	0.549505
H	1.642309	-1.811799	0.689532
H	2.481424	0.433389	0.38088
