17
-1746.63
C          0.97193       -0.01296        0.01096
C          2.48781        0.00388        0.02738
C          3.14987        1.05271        0.95782
C          4.24184        0.00145        1.24411
C          3.19132       -1.08557        0.89579
C          3.69192       -2.23677        0.17671
C          4.10629       -3.19543       -0.41652
H          0.60305       -0.87330       -0.55645
H          0.58241        0.89406       -0.46221
H          0.55697       -0.07174        1.02247
H          2.88297        0.06389       -0.99790
H          2.55649        1.31848        1.84059
H          3.49253        1.96963        0.47136
H          5.09417        0.06048        0.55601
H          4.61857       -0.01451        2.27053
H          2.59888       -1.37350        1.77596
H          4.47387       -4.04515       -0.94289
