17
-1640.13
C          0.90861        1.52504       -1.35543
O          2.32397        1.40235       -1.32436
C          2.83984        1.63021       -0.01628
C          4.32652        1.49760       -0.09929
C          5.19589        2.45840        0.25314
C          6.67902        2.32852        0.15074
O          7.14958        3.32017       -0.74724
H          0.56990        1.34111       -2.37831
H          0.60470        2.53476       -1.06340
H          0.44541        0.78577       -0.69523
H          2.44458        0.87590        0.67333
H          2.54303        2.62583        0.33344
H          4.69141        0.54939       -0.48695
H          4.83035        3.40991        0.63297
H          6.99231        1.34601       -0.21653
H          7.14272        2.49540        1.12741
H          6.64626        3.20602       -1.57238
