13
-1328.97
O          1.36197        0.16522        0.63704
C          2.43604       -0.08623        0.12138
N          2.90716       -1.30873       -0.30940
N          4.15010       -1.27935       -1.00255
C          4.58062        0.13369       -0.84915
C          3.88084        1.24357       -1.57950
C          3.47769        0.91616       -0.16534
H          2.26813       -2.09467       -0.37512
H          4.79686       -1.89561       -0.50112
H          5.60684        0.29894       -0.53993
H          4.42697        2.16418       -1.74684
H          3.20005        0.98423       -2.38241
H          3.74467        1.59522        0.63092
