10
-1143.79
C          0.92792        0.02047       -0.00030
C          2.12943        0.02202        0.00025
C          3.55756        0.02183        0.00092
N          4.16385        1.20507        0.00202
S          5.80480        0.95037        0.00263
C          5.71755       -0.76055        0.00142
C          4.38966       -1.13340        0.00052
H         -0.13638        0.03082       -0.00077
H          6.60372       -1.37862        0.00142
H          4.04079       -2.15684       -0.00034
