16

C	0.993689	0.028579	0.071964
C	2.50072	-0.035374	-0.072021
C	2.999852	-1.274671	-0.815625
C	3.303176	-0.668252	-2.15798
C	3.658635	-1.434411	-3.379898
N	3.269384	0.609034	-2.143487
O	2.936676	1.064939	-0.899225
H	0.690473	1.001001	0.485247
H	0.62927	-0.767114	0.739987
H	0.511501	-0.089751	-0.910948
H	2.989834	0.094907	0.905625
H	2.24571	-2.076592	-0.872237
H	3.913768	-1.714508	-0.380184
H	3.874691	-0.746624	-4.207805
H	2.836883	-2.106121	-3.678101
H	4.543729	-2.067152	-3.200412
