18
-1772.93
C          0.98370        0.00594       -0.00029
C          2.50190       -0.03340        0.00996
C          3.09229       -1.15089        0.88015
C          3.89391       -0.28150        1.84652
C          4.60187        0.79487        0.97443
C          3.10561        1.16225        0.75342
N          2.95503        0.85262        2.24278
H          0.58026       -0.88410       -0.49341
H          0.62763        0.88891       -0.54106
H          0.56478        0.05032        1.01086
H          2.87946       -0.09165       -1.01782
H          3.73992       -1.81719        0.30140
H          2.33323       -1.74956        1.39410
H          4.45550       -0.75419        2.65199
H          5.16428        0.44166        0.10525
H          5.20721        1.53333        1.51381
H          2.86366        2.17676        0.43566
H          3.38038        1.54945        2.85564
