15
-1547.18
O          1.36422       -0.35252       -0.92001
C          2.47025       -0.28321       -0.03578
C          2.83634        1.15414        0.11392
C          4.05326        1.66044       -0.14818
C          4.41151        3.11075       -0.00696
C          5.50479        3.25966        0.96403
C          6.39855        3.38747        1.75540
H          1.15813       -1.29490       -1.03412
H          3.29067       -0.87975       -0.44682
H          2.17515       -0.69929        0.93214
H          2.03986        1.80966        0.45852
H          4.84355        1.00281       -0.50481
H          3.54708        3.70398        0.31220
H          4.72361        3.49601       -0.98403
H          7.19143        3.49950        2.45900
