12

C	2.205471	-1.413288	0.476436
C	3.423595	-0.876065	0.364542
C	3.602753	0.601572	0.279816
O	2.657059	1.36455	0.306416
C	5.004993	1.093329	0.162598
C	5.26875	2.400968	0.089124
H	2.049765	-2.492868	0.542106
H	1.331027	-0.755665	0.504566
H	4.31864	-1.505861	0.334056
H	5.810508	0.352273	0.139505
H	4.440503	3.116378	0.115352
H	6.288425	2.783907	0.002893
