14
-1447.67
C          0.95449       -0.01075        0.05156
C          2.43534        0.05293        0.03481
C          3.28843        1.13912       -0.04057
C          4.61805        0.64478       -0.02952
C          4.54150       -0.72808        0.05465
N          3.22363       -1.06189        0.10768
O          2.75953       -2.36077        0.22550
H          0.51919        0.99379        0.07548
H          0.59607       -0.55668        0.93064
H          0.58381       -0.51646       -0.84692
H          2.98660        2.17773       -0.09496
H          5.52916        1.22800       -0.07249
H          5.30887       -1.48861        0.09610
H          2.20321       -2.39673       -0.56866
