11
-1180.68
C          2.82056       -1.06508        0.38229
C          2.26208        0.12337        0.10901
C          2.94747        1.37632        0.01215
N          2.32357        2.52630       -0.26481
S          3.49035        3.71937       -0.27987
C          4.75346        2.62395        0.08433
N          4.32685        1.38680        0.21752
H          2.21599       -1.96361        0.43478
H          3.88779       -1.16268        0.55803
H          1.18880        0.15958       -0.05785
H          5.78809        2.91680        0.19294
