14
-1402.34
C          1.42768       -0.53691       -0.00056
N          2.82281       -0.21688        0.13673
C          3.65426       -0.11241       -0.95059
O          3.33329       -0.34187       -2.10794
C          5.04020        0.29958       -0.62812
C          5.44599        1.74431       -0.73778
O          5.19049        1.13617        0.53637
H          1.06417       -0.92297        0.95410
H          1.28318       -1.28363       -0.78524
H          0.88384        0.37524       -0.26166
H          3.17427        0.13660        1.02032
H          5.79851       -0.45070       -0.81149
H          4.72301        2.45787       -1.11233
H          6.47459        1.96666       -0.99016
