18

C	1.006204	-0.055435	0.008501
N	2.443283	0.02806	0.028648
C	2.958656	1.37414	-0.025279
C	4.476533	1.393729	-0.004677
C	5.067289	2.793161	0.009593
N	6.515701	2.743055	-0.030337
H	0.686026	-1.108334	0.009266
H	0.522614	0.447075	-0.86001
H	0.589328	0.410426	0.917628
H	2.839086	-0.520916	-0.731182
H	2.5728	1.92482	0.853321
H	2.593803	1.94497	-0.913495
H	4.878143	0.858738	-0.883635
H	4.818842	0.829415	0.881201
H	4.650927	3.345288	0.882375
H	4.715952	3.339807	-0.883762
H	6.871867	2.307255	0.819182
H	6.906614	3.682117	-0.049979
