15
-1566.33
C          1.00000        0.00000        0.00000
C          2.44400        0.00000        0.00000
C          3.63416        0.00000        0.00000
C          5.07816        0.00000        0.00000
C          5.62850       -0.77242       -1.19307
C          5.60925        1.41532       -0.05514
O          6.55457        1.81268        0.62159
H          0.60601        1.02088        0.01157
H          0.60593       -0.52047        0.87827
H          0.60602       -0.50037       -0.88992
H          5.44998       -0.45751        0.92433
H          5.30080       -0.33401       -2.14343
H          5.29578       -1.81624       -1.17479
H          6.72424       -0.76566       -1.19006
H          5.14808        2.07625       -0.81055
