15

O	0.961336	0.073418	-0.094933
C	2.302736	-0.02149	-0.041968
O	2.83826	-1.090982	-0.068049
C	3.038732	1.30114	0.042882
C	4.545392	1.131611	0.184823
C	5.271871	2.438995	0.186933
C	6.030773	2.896615	1.183622
H	0.689308	0.998042	-0.06132
H	2.632213	1.881112	0.891294
H	2.794112	1.885616	-0.863752
H	4.89792	0.500712	-0.6492
H	4.7636	0.565228	1.103749
H	5.150519	3.057751	-0.71295
H	6.179338	2.314665	2.099492
H	6.53667	3.863488	1.120928
