8
-862.34
N          1.02794        0.01456        0.00000
C          2.38557       -0.05732       -0.00000
O          2.99641       -1.11525        0.00000
C          3.08547        1.20314       -0.00000
C          3.66892        2.25422       -0.00000
H          0.53646        0.89586       -0.00000
H          0.50715       -0.85062        0.00000
H          4.19723        3.17875       -0.00000
