19

C	3.207308	-1.523472	-0.950029
C	2.820316	-0.503969	0.11243
O	2.902101	-1.061431	1.398461
C	3.6112	0.818787	0.02952
C	5.090297	0.647021	0.268658
C	5.974996	0.587085	-0.94117
C	5.580071	0.535166	1.513175
H	3.107525	-1.11482	-1.968036
H	2.564466	-2.411192	-0.864201
H	4.249514	-1.855452	-0.813969
H	1.756879	-0.244339	-0.025889
H	3.839695	-1.214107	1.578703
H	3.185776	1.49194	0.789867
H	3.433292	1.281884	-0.955101
H	5.637418	-0.185016	-1.651418
H	7.023397	0.38502	-0.679224
H	5.934886	1.54643	-1.485475
H	4.932261	0.634415	2.389173
H	6.646791	0.37433	1.695784
