18

N	0.772015	0.05848	-0.180596
C	2.207586	-0.107339	-0.073481
C	2.910822	1.248883	-0.088119
C	4.383613	1.144721	0.123466
C	5.327032	1.521937	-0.755991
C	6.756447	1.395977	-0.528092
C	7.702068	1.770817	-1.401902
H	0.302859	-0.842193	-0.11793
H	0.531333	0.436649	-1.095806
H	2.662676	-0.745602	-0.862165
H	2.428197	-0.610281	0.884946
H	2.450521	1.866396	0.704004
H	2.70426	1.761239	-1.044458
H	4.707598	0.706341	1.077611
H	5.016875	1.958395	-1.714541
H	7.058947	0.959855	0.432042
H	7.439064	2.209502	-2.36977
H	8.765567	1.651121	-1.181058
