13

N	1.028439	-0.106389	-0.360529
C	2.340363	0.028207	0.021648
C	3.060245	1.170537	0.070854
C	4.521531	1.336228	0.396202
O	4.729536	2.753947	0.336244
N	3.577039	3.396278	-0.01582
C	2.636764	2.534675	-0.172808
H	0.528327	-0.90946	-0.004335
H	0.462851	0.731043	-0.413316
H	2.835412	-0.920565	0.254338
H	5.19598	0.852966	-0.33412
H	4.797768	0.983952	1.406158
H	1.645642	2.891311	-0.459216
