11

N	1.096372	0.074669	0.00814
C	2.41843	-0.108807	0.006334
C	3.186141	-1.241005	-0.005384
C	4.557914	-0.775506	-0.000348
O	5.619436	-1.356721	-0.006262
C	4.400817	0.758491	0.015654
N	3.180713	1.118521	0.019258
H	0.451014	-0.700777	-0.000515
H	0.744944	1.02278	0.018044
H	2.863282	-2.278126	-0.016604
H	5.236546	1.467161	0.023093
