13

O	1.481492	-0.32265	0.914608
C	2.24061	0.024581	-0.212635
C	2.696881	1.406527	-0.117479
C	3.079412	2.55579	-0.071769
C	3.538754	3.918747	0.037687
C	4.265144	4.582761	-1.056233
O	2.925719	4.898903	-0.782232
H	1.202922	-1.237695	0.808724
H	1.661286	-0.071495	-1.154688
H	3.134391	-0.623414	-0.328408
H	3.745291	4.250025	1.065393
H	4.448914	4.026018	-1.984183
H	5.007013	5.354871	-0.811016
