17
-1761.54
C          1.42154       -0.46517        0.03221
C          2.73954       -0.23569        0.06245
C          3.30468        1.09095        0.01906
C          4.62570        1.32971        0.04180
C          5.24781        2.65700        0.00956
C          6.43024        2.87797       -0.89724
C          5.10723        3.50419       -1.22808
H          1.03848       -1.48008        0.06654
H          0.69586        0.33969       -0.02759
H          3.42259       -1.08027        0.12166
H          2.61643        1.93176       -0.03735
H          5.31240        0.48734        0.10577
H          5.25910        3.17075        0.96651
H          6.77316        2.06423       -1.52628
H          7.22420        3.52616       -0.54404
H          5.00360        4.57525       -1.09689
H          4.55921        3.10963       -2.07651
