17

C	1.642285	-0.244697	1.53817
C	2.314039	0.038792	0.195467
C	3.000835	1.364601	0.170445
C	4.314353	1.614539	-0.019126
C	5.378112	0.578874	-0.266003
C	4.779151	2.96984	0.007889
C	5.217504	4.102399	0.023669
H	1.104676	-1.205046	1.51897
H	0.91463	0.541601	1.794989
H	2.385125	-0.28607	2.34964
H	1.543721	0.030786	-0.597597
H	3.01273	-0.774481	-0.051859
H	2.353474	2.232226	0.346267
H	4.976627	-0.442244	-0.266814
H	6.162882	0.643684	0.504592
H	5.870112	0.75692	-1.235492
H	5.593635	5.108327	0.040163
