18

C	1.049443	-0.225664	0.16652
C	2.509085	0.066684	-0.130506
O	3.35001	-0.447721	0.909045
C	2.981307	-0.634909	-1.403531
N	2.851532	-2.070454	-1.271443
C	2.778628	1.573768	-0.211556
O	4.14587	1.844177	-0.272607
H	0.39845	0.235305	-0.591528
H	0.75687	0.183971	1.148102
H	0.880092	-1.3109	0.154088
H	2.90741	-0.299354	1.752014
H	4.009375	-0.273651	-1.605078
H	2.352226	-0.282901	-2.238664
H	3.428979	-2.373368	-0.488667
H	3.207672	-2.538685	-2.100523
H	2.302204	2.055555	0.671262
H	2.297556	2.00226	-1.106613
H	4.546781	1.223088	0.353254
