18
-1750.9
C          1.06344       -0.28222       -0.09681
C          2.57347       -0.11919       -0.01975
C          2.97457        1.35668        0.02814
C          4.49068        1.55175        0.02525
N          5.12269        1.02946        1.21836
C          5.20289        1.75721        2.37712
O          4.79793        2.89849        2.53633
H          0.79763       -1.34384       -0.12490
H          0.66306        0.19138       -0.99924
H          0.57461        0.16768        0.77352
H          3.03071       -0.60161       -0.89112
H          2.94149       -0.64027        0.87101
H          2.53754        1.82718        0.91744
H          2.55711        1.87185       -0.84574
H          4.71942        2.62078       -0.05186
H          4.94491        1.04703       -0.83396
H          5.44210        0.06967        1.22425
H          5.68978        1.18576        3.18446
