19

C	2.112741	-0.379118	-1.314511
N	2.382087	0.103047	0.017345
C	2.85927	-0.95572	0.871744
C	3.267919	1.240023	0.015208
C	2.689906	2.537543	-0.593266
N	2.624925	3.143189	0.735271
C	3.3485	2.027665	1.3417
H	1.699192	0.423578	-1.942856
H	1.367812	-1.189563	-1.278822
H	3.020536	-0.775833	-1.826234
H	2.11832	-1.769518	0.915393
H	3.009264	-0.590586	1.898342
H	3.823648	-1.394941	0.52404
H	4.269119	0.974308	-0.396019
H	1.705928	2.429662	-1.081935
H	3.378702	3.023313	-1.309171
H	3.04977	4.059308	0.831999
H	4.386577	2.242777	1.653909
H	2.820575	1.566636	2.194293
