14
-1379.27
C          1.04945       -0.01351        0.02615
C          2.53974        0.01170       -0.03030
N          3.26047       -1.05940       -0.11509
O          4.61545       -0.64673       -0.08856
C          4.65568        0.75863       -0.35792
C          3.30265        1.29481        0.05702
O          2.83822        2.33166       -0.77863
H          0.68216       -1.04134       -0.03355
H          0.64273        0.56102       -0.80989
H          0.71536        0.43416        0.96566
H          4.86402        0.90924       -1.42288
H          5.46641        1.21537        0.21752
H          3.29817        1.63238        1.09806
H          2.88888        2.02542       -1.70187
