15
-1531.87
C          0.98211       -0.01934        0.28320
C          2.45613       -0.04009        0.03052
N          3.12189        1.06407       -0.21595
C          4.50114        0.69403       -0.47175
C          5.33591        0.01388        0.57531
C          4.52866       -0.82506       -0.36440
N          3.16815       -1.22867        0.00443
H          0.59737       -1.03438        0.41018
H          0.47538        0.45540       -0.56142
H          0.77985        0.55810        1.18937
H          5.02991        1.23819       -1.24199
H          6.41114        0.02542        0.44583
H          5.01762        0.09531        1.60765
H          5.00425       -1.38748       -1.15551
H          2.70839       -2.02597       -0.41815
