13
-1325.71
C          0.94501       -0.00055        0.06192
C          2.42114        0.03799        0.03441
C          3.31814        1.08383       -0.06102
N          4.61516        0.62856       -0.06270
C          4.51763       -0.67902        0.05092
N          3.21563       -1.06844        0.11344
O          2.77279       -2.37509        0.24145
H          0.52601        1.01016        0.08148
H          0.58435       -0.53388        0.94670
H          0.55953       -0.50757       -0.82865
H          3.09809        2.14275       -0.13293
H          5.33832       -1.37982        0.09319
H          2.20384       -2.42702       -0.54401
