17

C	0.912185	-0.277087	0.022145
C	2.429868	-0.217845	-0.137227
C	2.902604	-0.931342	-1.394635
N	2.925443	1.146378	-0.162471
C	2.986797	2.019174	0.871587
N	2.703006	1.525078	2.103798
S	3.375464	3.625472	0.639547
H	0.587826	0.264587	0.922807
H	0.564496	-1.31852	0.100342
H	0.419844	0.187768	-0.846294
H	2.898018	-0.733945	0.723512
H	2.47551	-0.454255	-2.292224
H	2.577304	-1.9811	-1.391254
H	3.999252	-0.904576	-1.476832
H	3.085471	1.583689	-1.062424
H	2.681268	0.53143	2.292032
H	2.874075	2.151452	2.87772
