17
-1616.19
C          3.01730       -0.89247       -0.70754
N          2.61468        0.01291        0.35934
C          3.12807        1.37269        0.17555
C          2.42366        2.28842        1.18034
C          4.61813        1.44207        0.38852
C          5.49334        1.87297       -0.53019
H          2.53972       -1.86477       -0.55271
H          4.09897       -1.05569       -0.72466
H          2.69398       -0.52312       -1.68587
H          2.91883       -0.35258        1.25954
H          2.86429        1.72798       -0.82920
H          2.62712        1.99250        2.21604
H          1.33794        2.26851        1.03225
H          2.75345        3.32628        1.05871
H          4.99370        1.12710        1.35910
H          5.17202        2.20077       -1.51380
H          6.55662        1.90247       -0.31316
