15
-1415.52
C          3.94973       -1.21013       -0.41914
S          2.77397        0.00653        0.10787
O          1.80261        0.18523       -0.95305
O          2.36783       -0.31499        1.46073
C          3.77098        1.52175        0.23945
C          3.84558        2.35451       -1.01092
C          2.96614        2.78914        0.13189
H          4.74588       -1.27651        0.32455
H          4.35070       -0.91536       -1.39041
H          3.43439       -2.16904       -0.50235
H          4.60955        1.50119        0.91916
H          3.35636        2.01472       -1.91738
H          4.75217        2.92092       -1.19157
H          3.28152        3.63984        0.72460
H          1.89020        2.72352        0.00015
