12
-1239.32
N          0.92423        0.09541       -0.03527
C          2.26590        0.01756       -0.01328
C          3.15898        1.06571       -0.00115
C          4.51386        0.62190        0.01329
C          4.60960       -0.74913        0.01441
O          5.71427       -1.48559        0.02474
S          3.07483       -1.48889       -0.00012
H          0.42629        0.97650        0.01982
H          0.35131       -0.73954        0.01560
H          2.86022        2.10609       -0.00629
H          5.37768        1.27388        0.02088
H          5.39744       -2.40575        0.01910
