18
-1770.84
C          1.01404        0.58272        1.13960
C          2.47981        0.57746        0.85252
C          3.05732        1.35064       -0.08111
C          4.52714        1.35799       -0.40074
C          5.18669        2.68683       -0.16230
C          6.26653        3.18296       -1.09057
N          4.94226        3.79535       -1.08723
H          0.60024       -0.41821        0.98248
H          0.46818        1.28145        0.49730
H          0.83860        0.86877        2.18134
H          3.08673       -0.10233        1.44586
H          2.44707        2.02815       -0.67676
H          4.64465        1.05366       -1.44811
H          5.05235        0.60413        0.19744
H          5.25170        2.93800        0.88984
H          6.51140        2.60325       -1.97243
H          7.07560        3.77440       -0.68133
H          4.94599        4.68514       -0.58463
