13

O	1.69846	-0.522998	-0.736222
C	1.951416	0.373902	0.018294
C	3.226173	1.204394	-0.046974
C	3.69845	1.460654	-1.486118
C	3.26045	2.889882	-1.666101
C	2.891138	3.368822	-0.475533
O	2.9616	2.475493	0.548367
H	1.269713	0.666846	0.85829
H	3.974389	0.68384	0.576561
H	3.218739	0.741821	-2.169653
H	4.790202	1.346978	-1.600956
H	3.294012	3.453646	-2.596638
H	2.556768	4.367041	-0.191157
