17
-1575.03
C          0.95249       -0.13995        0.00883
C          2.46516       -0.00172       -0.14553
C          2.99656       -0.91974       -1.24455
N          2.83802        1.38759       -0.42511
O          2.32163        1.89737       -1.62357
C          2.95749        2.32940        0.56481
N          2.83269        3.60502        0.43354
H          0.57934        0.51051        0.80713
H          0.68125       -1.17104        0.25989
H          0.42544        0.13123       -0.91292
H          2.93749       -0.31044        0.79555
H          2.54763       -0.69124       -2.21717
H          2.78006       -1.96794       -1.01211
H          4.08224       -0.81318       -1.34692
H          3.12922        2.13906       -2.11648
H          3.20143        1.90151        1.55180
H          2.57047        3.77107       -0.54455
