17

C	0.922149	-0.036092	-0.032141
C	2.442641	-0.066163	-0.027558
C	3.017442	0.067499	1.36852
C	2.986693	-1.293138	-0.807405
C	3.411758	-0.674893	-2.108112
C	3.336149	0.653129	-1.978447
O	2.880416	1.093992	-0.788059
H	0.54739	-0.111152	-1.064197
H	0.555282	0.904707	0.40391
H	0.51487	-0.87792	0.548436
H	4.115944	0.102398	1.325817
H	2.716753	-0.787995	1.992637
H	2.658425	0.990925	1.846804
H	2.209391	-2.068178	-0.919928
H	3.835208	-1.770175	-0.282804
H	3.769407	-1.211283	-2.985209
H	3.596844	1.435841	-2.693353
