17
-1638.17
C          0.50606        0.50627        0.35199
O          1.71808        0.44084       -0.39217
C          2.81570        1.18057        0.19789
C          3.54991        0.44382        1.28685
O          3.86541       -0.87081        0.84037
C          3.61784        1.97565       -0.80330
C          2.73748        2.68582        0.18515
H          0.66526        0.19113        1.38665
H         -0.21532       -0.17156       -0.11113
H          0.09797        1.52005        0.32485
H          2.92639        0.36205        2.18186
H          4.48211        0.94388        1.56729
H          3.15662       -1.11292        0.21412
H          3.30255        1.94800       -1.84022
H          4.69157        2.03875       -0.67170
H          3.21823        3.23337        0.98729
H          1.84202        3.15853       -0.19714
