14

C	1.023884	-0.376828	-0.027752
C	2.461046	0.100285	0.028363
C	2.575789	1.595365	0.209294
O	1.612029	2.323874	0.298287
C	3.934942	2.195155	0.282145
N	4.966725	1.450654	0.188391
O	6.127005	2.133832	0.273296
H	0.977548	-1.467461	-0.159778
H	0.483098	0.097259	-0.859622
H	0.48415	-0.114966	0.894189
H	3.023483	-0.1699	-0.882304
H	3.025399	-0.379565	0.846626
H	4.000731	3.284321	0.418699
H	6.806452	1.455265	0.184905
