16

C	0.977969	-0.031401	0.038964
C	2.504737	-0.026393	-0.026057
C	3.077962	1.314175	0.001965
C	3.522366	2.442935	0.019276
C	4.088432	3.770244	0.051631
C	4.027517	4.691885	-1.116695
N	3.175623	4.913884	0.032172
H	0.592343	-1.061414	0.016326
H	0.545715	0.516673	-0.811282
H	0.621555	0.449743	0.961855
H	2.84306	-0.543755	-0.941315
H	2.917935	-0.60935	0.815902
H	4.989943	3.855906	0.67351
H	3.513193	4.361847	-2.025254
H	4.89315	5.342766	-1.288774
H	3.541382	5.659287	0.623338
