16
-1561.21
C          0.71306       -0.00920       -0.42609
C          2.21815        0.21780       -0.31805
C          2.96818       -0.11411       -1.60921
O          2.38572        0.53064       -2.74257
C          2.50865        1.64488        0.11854
N          2.21758        2.61920       -0.78916
O          2.93752        1.92621        1.23230
H          0.22296        0.20719        0.52947
H          0.49716       -1.04956       -0.68914
H          0.24980        0.63630       -1.17943
H          2.61419       -0.43337        0.47247
H          2.96447       -1.19403       -1.79285
H          4.01251        0.20936       -1.54569
H          1.67242       -0.04809       -3.06836
H          2.14919        2.37373       -1.77372
H          2.48907        3.56370       -0.55324
