16
-1519.19
N          1.05828       -0.14789       -0.16071
C          2.52509       -0.07316       -0.06267
C          3.34108       -0.68329       -1.17809
O          2.57311       -1.22492       -2.26770
C          3.27490        0.81222       -1.02229
C          4.47684        1.56555       -0.56969
O          5.25243        1.93982       -1.69846
H          0.63051        0.64824        0.31564
H          0.71458       -0.97674        0.32853
H          2.92345       -0.17165        0.94436
H          4.25985       -1.19318       -0.91121
H          1.63089       -1.00349       -2.12137
H          2.69983        1.37810       -1.74641
H          5.10862        0.97833        0.10478
H          4.17659        2.47817       -0.04654
H          5.35677        1.14642       -2.25247
