11
-1179.93
N          1.01689       -0.02403        0.00035
N          2.35060       -0.00550       -0.00000
C          2.88155        1.16735       -0.00001
C          4.31403        1.12169       -0.00004
C          5.51435        1.10064       -0.00002
C          7.04702        1.08239       -0.00000
C          8.24551        1.07081        0.00001
H          0.55212       -0.92600       -0.00013
H          0.44356        0.81117       -0.00017
H          2.35712        2.13587        0.00006
H          9.31118        1.05863        0.00000
