16
-1530.77
C         -1.82888        0.97657        0.39012
C         -1.33349       -0.36131       -0.09704
C         -0.24044       -1.19891        0.43872
N          0.70640       -0.45783       -0.37978
C          1.97066       -0.07278        0.10630
C          0.78671        0.89730        0.16279
C         -0.59969        0.90508       -0.49287
H         -2.74115        1.36514       -0.04886
H         -1.71186        1.21206        1.44124
H         -1.90660       -0.86733       -0.86691
H         -0.10858       -1.11217        1.52336
H         -0.31339       -2.24595        0.13548
H          2.32958       -0.51687        1.02569
H          2.73755        0.12651       -0.63178
H          0.70203        1.18717        1.21666
H         -0.69420        1.26997       -1.51266
