16
-1572.05
C          0.97480       -0.16443       -0.14717
C          2.48917       -0.03106       -0.04166
C          3.20138       -0.86180       -1.10224
C          2.89223        1.43809       -0.09338
C          2.89787        2.14110       -1.42756
O          3.17701        2.04901        0.93892
H          0.47538        0.45140        0.60890
H          0.66544       -1.20398        0.00435
H          0.60804        0.15673       -1.12794
H          2.80221       -0.40679        0.94106
H          2.87219       -0.59798       -2.11297
H          3.00198       -1.92846       -0.95490
H          4.28482       -0.70950       -1.05431
H          1.94192        1.99625       -1.93552
H          3.71710        1.76399       -2.04405
H          3.04406        3.21423       -1.27214
