14

C	2.938052	-1.048484	-0.394911
N	2.347375	0.163723	0.119976
C	3.251006	1.262255	0.205819
C	3.411251	2.124416	-1.012418
C	2.672478	2.644244	0.18588
H	2.18688	-1.853287	-0.422754
H	3.813663	-1.417573	0.182333
H	3.280232	-0.882998	-1.42911
H	1.911514	-0.002327	1.023647
H	4.16347	1.12339	0.813389
H	2.815248	1.843777	-1.884761
H	4.400448	2.53087	-1.237463
H	3.144414	3.415747	0.799791
H	1.583857	2.712627	0.112214
