15
-1518.02
C          0.94237       -1.14875        0.88792
C          1.17961       -0.35160       -0.35801
C          0.95485        1.12584       -0.43222
C         -0.25315        1.55974        0.39431
N         -1.43123        0.71804        0.14859
C         -1.19155       -0.51772       -0.12415
N         -0.00229       -1.21705       -0.23867
H          1.49295       -2.06986        1.02353
H          0.54602       -0.69499        1.78492
H          1.90437       -0.71294       -1.07562
H          1.85036        1.65923       -0.09600
H          0.79074        1.39749       -1.48225
H         -0.02088        1.54588        1.46555
H         -0.50385        2.59598        0.14173
H         -2.04675       -1.17916       -0.34222
