17
-1693.59
C          0.82506       -0.13750       -0.49634
C          2.25791       -0.01065       -0.02460
C          3.30226       -0.69517       -0.89264
C          3.18717        0.79801       -0.91562
C          2.46172        0.03763        1.50645
C          1.70067        0.96357        2.42317
O          1.36307       -0.42342        2.31000
H          0.75397       -0.17029       -1.58947
H          0.22985        0.71502       -0.15400
H          0.37457       -1.05713       -0.10887
H          2.97253       -1.24675       -1.76640
H          4.16878       -1.13265       -0.40851
H          3.97706        1.37430       -0.44659
H          2.78071        1.26331       -1.80695
H          3.45453       -0.24341        1.85090
H          1.02102        1.68473        1.98873
H          2.18022        1.28771        3.33788
