15
-1489.07
C          0.99083       -0.03135        0.06627
C          2.50417       -0.03822        0.09166
C          3.11187        1.11372        0.88328
O          4.29600        0.55786        1.47722
C          4.16278       -0.79505        1.46380
N          5.06276       -1.54349        1.97129
N          3.02639       -1.16932        0.82455
H          0.60983       -0.90448       -0.47431
H          0.61504        0.86893       -0.42995
H          0.57068       -0.06478        1.07765
H          2.90678       -0.05052       -0.92824
H          2.46334        1.47646        1.68825
H          3.38304        1.95408        0.23760
H          4.77696       -2.51761        1.87213
H          3.04401       -2.06606        0.35782
