17
-1695.1
C          0.83017        0.10031        0.26200
C          2.32549        0.02252       -0.04165
C          3.16957        0.95708        0.85977
O          3.51993       -0.14691        1.73405
C          3.07757       -1.09137        0.72427
C          2.63060        0.13333       -1.50203
C          2.37866       -0.87851       -2.34206
H          0.63650        0.05730        1.34005
H          0.28610       -0.73172       -0.19871
H          0.40049        1.03646       -0.11221
H          2.61901        1.73709        1.39466
H          4.06874        1.39617        0.41334
H          3.93664       -1.54704        0.21961
H          2.45355       -1.88050        1.15475
H          3.05560        1.06056       -1.87784
H          1.94735       -1.81749       -2.00786
H          2.59962       -0.78440       -3.40156
