17

C	1.134074	1.649968	1.391562
O	2.510377	1.778799	1.235566
C	2.98345	1.303959	0.005851
C	4.477547	1.523137	-0.074267
C	4.879415	2.988282	-0.030765
N	6.320563	3.126323	-0.138303
H	0.864522	2.037093	2.384628
H	0.803097	0.592949	1.328421
H	0.570024	2.223967	0.628243
H	2.474571	1.828661	-0.832393
H	2.748638	0.224709	-0.108923
H	4.866741	1.069151	-1.000255
H	4.953068	0.985247	0.765311
H	4.434029	3.443602	0.877409
H	4.416032	3.50592	-0.890009
H	6.767552	2.728223	0.686715
H	6.583229	4.1094	-0.148281
