17
-1564.22
N          0.90271       -0.37160        0.14295
C          2.36003       -0.28039        0.17452
C          2.80799        1.13946       -0.16769
C          4.32363        1.28437       -0.10069
O          4.92592        0.41597       -1.06217
N          6.31847        0.55472       -0.97560
C          6.86436       -0.23556       -1.83576
H          0.62320       -1.33384        0.33099
H          0.56864       -0.15923       -0.79671
H          2.77853       -1.00119       -0.53613
H          2.71116       -0.55548        1.17485
H          2.34998        1.85568        0.52495
H          2.46684        1.39062       -1.17970
H          4.68951        1.03192        0.90183
H          4.60416        2.31929       -0.32847
H          7.96042       -0.27414       -1.92818
H          6.28124       -0.89349       -2.50209
