13
-1427.72
C          0.97705        0.02404       -0.00606
C          2.47444       -0.04073        0.00134
O          3.10223       -1.09205        0.00542
C          3.18500        1.21763        0.00000
C          3.78008        2.24834        0.00000
C          4.48308        3.46597        0.00000
C          3.85025        4.64377       -0.00004
H          0.62244        1.05890        0.01270
H          0.59092       -0.49356        0.87678
H          0.60105       -0.45909       -0.91251
H          5.56906        3.43279        0.00005
H          2.76694        4.71473       -0.00007
H          4.41275        5.57198       -0.00002
