12
-1271.03
C          3.28549       -1.03201        0.52408
O          2.42094        0.06588        0.26009
C          3.00756        1.25403        0.13639
C          2.53939        2.52200       -0.11209
N          3.58497        3.41268       -0.14036
C          4.63173        2.65272        0.09010
O          4.36642        1.32908        0.26923
H          2.67227       -1.93464        0.60022
H          3.81090       -0.89762        1.47587
H          3.99930       -1.17498       -0.29450
H          1.51665        2.83186       -0.26947
H          5.66964        2.94967        0.15403
