15

O	0.78281	0.260258	-0.331573
C	2.160514	0.023462	-0.442647
C	2.863857	0.903993	0.568086
N	4.290446	0.697847	0.519281
C	5.051527	1.52559	-0.385096
C	5.131115	1.720195	1.084413
H	0.323894	-0.30914	-0.954934
H	2.544925	0.263025	-1.456391
H	2.43002	-1.031316	-0.237074
H	2.499435	0.64386	1.575449
H	2.570655	1.961668	0.382591
H	4.513256	2.294	-0.957712
H	5.86508	1.034904	-0.930549
H	6.004655	1.376873	1.649953
H	4.64767	2.61904	1.491412
