13

O	1.10522	0.022378	-0.685354
C	2.351797	-0.201815	-0.082749
C	3.158979	1.069029	-0.22558
C	4.53282	0.968439	0.37991
O	4.947815	-0.031491	0.919962
C	5.355951	2.170535	0.277248
C	6.027816	3.175425	0.184663
H	0.579977	-0.778482	-0.601703
H	2.906668	-1.036191	-0.55376
H	2.264559	-0.455246	0.991738
H	2.626371	1.917411	0.238783
H	3.258419	1.343319	-1.290592
H	6.630978	4.06271	0.107686
