17
-1661.76
C          4.26046       -1.97134        1.14057
C          3.19237       -0.99437        0.71145
N          1.94414       -1.21474        0.98694
N          3.51188        0.14198        0.01835
C          4.80917        0.78357        0.19593
C          6.01953        0.34628       -0.57846
C          5.36670        1.66035       -0.89088
H          4.82633       -2.29855        0.26377
H          3.82042       -2.85059        1.61881
H          4.93893       -1.49009        1.84995
H          1.83918       -2.09572        1.50035
H          2.69554        0.73997       -0.08352
H          4.96352        1.13124        1.21503
H          5.90774       -0.45612       -1.29809
H          6.97586        0.35973       -0.06935
H          5.88172        2.56715       -0.59720
H          4.81815        1.74016       -1.82223
