12
-1275.11
C          3.31576       -1.04905        0.51256
O          2.45831        0.05021        0.24640
C          3.05464        1.23019        0.13391
N          2.44754        2.36826       -0.10960
C          3.47735        3.27416       -0.13064
C          4.67029        2.63432        0.10352
O          4.41039        1.30742        0.27692
H          2.69970       -1.95081        0.58021
H          3.83398       -0.92188        1.46927
H          4.03606       -1.19269       -0.30019
H          3.30631        4.32602       -0.31116
H          5.70384        2.93949        0.17485
