15
-1510.13
C          1.30289        0.08476        0.20658
C          2.72508       -0.15825       -0.29076
C          2.73160       -0.90634       -1.61036
O          1.72464       -1.29585       -2.19608
C          3.46468        1.14252       -0.42684
C          4.43703        1.60837        0.62724
O          4.88202        0.99652       -0.59133
H          1.30840        0.60747        1.16930
H          0.76526       -0.86105        0.33515
H          0.73194        0.69735       -0.50118
H          3.23656       -0.80731        0.43089
H          3.73252       -1.12924       -2.01797
H          2.96044        1.87786       -1.04219
H          4.54613        1.03620        1.53975
H          4.60416        2.67231        0.73968
