18
-1716.3
C          0.98345        0.10619        0.07354
C          2.47971       -0.12602       -0.01741
O          3.21380        0.92342        0.68106
C          4.11869       -0.07064        1.24486
C          3.14143       -1.20821        0.88333
C          2.38689       -1.83638        2.03285
N          3.82462       -2.20982        0.04350
H          0.43931       -0.74397       -0.34912
H          0.69964        0.99956       -0.49247
H          0.65203        0.24658        1.10580
H          2.79311       -0.14486       -1.07026
H          5.08464       -0.04746        0.72788
H          4.27892        0.09904        2.31346
H          1.93926       -1.07619        2.68274
H          3.05235       -2.44441        2.65797
H          1.58015       -2.48299        1.67305
H          4.37278       -1.82142       -0.72476
H          3.19483       -2.89199       -0.37897
