20
-1904.2
C          1.37714       -0.45866       -0.01648
N          2.82854       -0.33075       -0.17287
C          3.21430       -0.73315       -1.52709
C          3.23888        1.04789        0.12836
C          4.73380        1.17094        0.17934
C          5.50500        1.76032       -0.97700
C          5.36882        2.53430        0.30307
H          1.07481       -0.21024        1.00691
H          1.05968       -1.49252       -0.19225
H          0.82821        0.19270       -0.70654
H          2.86013       -1.74815       -1.74112
H          4.30304       -0.76765       -1.63467
H          2.80833       -0.06089       -2.29117
H          2.86453        1.32526        1.12196
H          2.80536        1.75804       -0.58784
H          5.19045        0.36987        0.75144
H          4.95591        2.11145       -1.84317
H          6.47001        1.32563       -1.21122
H          6.24510        2.62763        0.93468
H          4.72807        3.40846        0.30305
