17
-1754.39
C          0.83001        0.06161       -0.50585
C          2.12902       -0.06051        0.23253
C          2.58750       -1.44937        0.87183
C          3.93985       -0.61850        0.92744
C          3.51245       -0.21628       -0.54833
C          3.62073        0.57963        1.75978
C          2.41722        0.95535        1.30227
H         -0.02356       -0.02224        0.17498
H          0.73002       -0.72734       -1.25864
H          0.75616        1.02332       -1.02426
H          2.57311       -2.32752        0.21570
H          2.13878       -1.72013        1.83347
H          4.88393       -1.13229        1.09637
H          3.95451        0.69999       -0.95391
H          3.56736       -1.00225       -1.31074
H          4.21954        1.02596        2.53705
H          1.80160        1.78223        1.61892
