20
-1861.05
C          0.88354       -0.12463       -0.02278
C          2.40692       -0.11465       -0.03166
C          2.97377        1.30588        0.06803
O          2.61797        1.86582        1.33605
C          4.51160        1.35188       -0.07566
N          5.16928        0.72800        1.08791
C          6.61927        0.84386        0.98121
H          0.51338       -1.15069       -0.11658
H          0.48285        0.45791       -0.85847
H          0.48794        0.29154        0.90905
H          2.76013       -0.59251       -0.95250
H          2.74764       -0.72356        0.81351
H          2.52699        1.93690       -0.70868
H          3.36065        1.63204        1.93090
H          4.81456        2.40548       -0.12014
H          4.81809        0.86505       -1.00886
H          4.92535       -0.26254        1.12059
H          6.93341        1.89231        0.96939
H          6.99588        0.34507        0.08223
H          7.08619        0.36955        1.85003
