17
-1747.
C          1.03079        0.00131       -0.04809
C          2.52154        0.00091       -0.02026
C          3.34753       -0.73983       -1.04711
C          2.72899       -1.52245       -2.15558
C          3.30175        0.77231       -1.06068
C          4.46937        1.49240       -0.64861
C          5.44791        2.10076       -0.30574
H          0.64442        0.70912        0.69237
H          0.64711       -0.99285        0.20155
H          0.62952        0.29075       -1.02449
H          2.89125       -0.01482        0.99998
H          4.25196       -1.22470       -0.69116
H          1.85481       -1.02559       -2.58727
H          2.41915       -2.50802       -1.79297
H          3.45864       -1.67074       -2.95833
H          2.73752        1.23917       -1.86252
H          6.31317        2.63775       -0.00019
