16

O	1.35185	0.036455	0.858805
N	2.443546	-0.019999	0.019201
C	2.927548	1.135571	-0.199717
C	2.454943	2.4473	0.373542
C	3.335513	3.492655	-0.320032
C	4.627301	2.735161	-0.643733
C	4.129423	1.354411	-1.0809
H	1.097098	-0.887399	0.944563
H	2.616549	2.428997	1.466361
H	1.371904	2.585416	0.230052
H	2.856186	3.818006	-1.258949
H	3.500305	4.394855	0.287429
H	5.247859	3.235548	-1.401937
H	5.239684	2.636017	0.269432
H	3.803355	1.387932	-2.136513
H	4.868126	0.544967	-0.993062
