14
-1426.74
C          1.07455       -0.35466       -0.08993
C          2.49039        0.15556        0.14339
C          2.58565        1.65213        0.04665
C          3.14227        2.30221       -0.98781
C          2.07244        2.46189        1.18333
O          1.59243        1.95938        2.19221
H          1.05930       -1.44855       -0.05434
H          0.69878       -0.04331       -1.06991
H          0.38338        0.01418        0.67340
H          3.15575       -0.31217       -0.59424
H          2.84787       -0.17813        1.12555
H          3.54716        1.75684       -1.83528
H          3.21447        3.38494       -1.02764
H          2.15253        3.55603        1.06991
