15

O	0.919062	-0.049313	0.019435
C	2.319164	-0.075324	0.005999
C	2.799167	1.357182	-0.002824
O	4.196186	1.346111	-0.018531
C	4.757648	2.624885	-0.032093
C	6.214356	2.547488	-0.053957
C	7.423214	2.507706	-0.072408
H	0.597128	-0.954528	0.026013
H	2.730686	-0.585843	-0.887541
H	2.747855	-0.581074	0.89416
H	2.403872	1.882446	0.891521
H	2.384006	1.87758	-0.890989
H	4.441533	3.209772	0.858616
H	4.41451	3.202188	-0.917742
H	8.496914	2.466123	-0.089138
