17
-1613.97
C          3.05679       -1.07413       -0.51763
C          2.48445        0.20705        0.07138
N          3.51686        1.24702        0.08931
C          3.47660        2.14057       -1.06708
C          2.97448        2.58753        0.28583
C          3.75616        3.56716        1.09100
H          2.30203       -1.86675       -0.49875
H          3.92279       -1.42168        0.05560
H          3.36803       -0.92920       -1.55738
H          2.16476        0.01025        1.10169
H          1.58649        0.49363       -0.49196
H          2.75472        1.94669       -1.85071
H          4.43851        2.50086       -1.41129
H          1.90602        2.69965        0.42856
H          4.83697        3.44830        0.95767
H          3.52965        3.44641        2.15522
H          3.48920        4.58837        0.80110
