17

C	1.430374	0.385333	-0.188232
C	2.797228	-0.185981	0.039512
C	2.991143	-1.670311	0.291832
C	4.375844	-2.025652	-0.296623
C	5.092152	-0.700074	-0.649536
C	4.042625	0.375829	-0.499123
O	3.67288	0.589785	0.850321
H	1.493011	1.470641	-0.349767
H	0.785609	0.205922	0.68736
H	0.95011	-0.079477	-1.063027
H	2.184951	-2.258769	-0.172405
H	2.942754	-1.852141	1.37741
H	4.969858	-2.646437	0.390111
H	4.240549	-2.622554	-1.212387
H	5.92721	-0.487813	0.036974
H	5.506699	-0.7135	-1.669407
H	4.059284	1.270479	-1.136842
