15
-1421.83
C          0.91670        0.17235        0.04467
C          2.41965        0.00940       -0.10458
O          2.69384       -0.57858       -1.37476
C          3.13598        1.32898       -0.03613
C          3.98172        1.69636        1.15419
N          4.60371        1.32114       -0.11333
H          0.66185        0.62965        1.00545
H          0.41640       -0.79904       -0.02848
H          0.50698        0.79978       -0.75477
H          2.78679       -0.68095        0.66395
H          3.66416       -0.51994       -1.46904
H          2.64617        2.10995       -0.60614
H          4.09031        0.98403        1.96250
H          4.04947        2.73817        1.44005
H          4.94059        2.14935       -0.61073
