16

C	-0.869225	-0.052652	-1.112784
C	-0.572463	1.058939	-0.090046
C	-1.105538	0.039026	0.923055
N	-0.671461	-1.04406	-0.011929
C	0.76695	-1.229067	0.178654
C	1.567284	0.059138	-0.117528
O	0.811737	1.233298	0.106913
H	-1.919197	-0.054249	-1.442657
H	-0.21908	-0.162977	-1.994414
H	-1.019666	2.061668	-0.185244
H	-0.630628	0.031407	1.916853
H	-2.202155	0.037431	1.031153
H	0.921261	-1.56999	1.214828
H	1.124423	-2.039651	-0.478666
H	1.915735	0.045096	-1.167588
H	2.468573	0.122353	0.51104
