15

O	0.426349	1.58698	0.120702
C	1.582986	1.245306	0.177551
C	2.728582	2.126989	-0.052005
C	3.987807	1.659118	0.034995
C	5.235503	2.415663	-0.153099
C	5.277614	3.637652	-1.045953
C	5.372953	3.813238	0.42443
H	1.861956	0.183846	0.420889
H	2.494817	3.16956	-0.294178
H	4.109115	0.596314	0.28293
H	6.14267	1.805995	-0.132602
H	4.34451	3.910936	-1.546353
H	6.175796	3.780936	-1.652373
H	6.338895	4.078887	0.862493
H	4.504846	4.20253	0.963842
