19
-1897.47
C          0.74014        1.08089       -0.40120
C         -0.49551        0.29452       -0.05848
C          0.84602       -0.38191       -0.06672
C          1.56774       -0.89938        1.15481
C          1.38488       -0.24199        2.55099
C          1.57742       -1.64651        3.15811
C          1.07232       -2.21370        1.81710
H          0.88542        1.37595       -1.43385
H          1.09610        1.80517        0.32158
H         -1.18599        0.05931       -0.86104
H         -0.98028        0.49850        0.88834
H          1.04457       -1.06237       -0.89028
H          2.63868       -0.96907        0.90038
H          0.39286        0.17844        2.74236
H          2.14086        0.49702        2.82829
H          2.62278       -1.89381        3.37723
H          0.96471       -1.87556        4.03344
H          1.56280       -3.13020        1.47843
H         -0.01390       -2.35588        1.77864
