17
-1587.24
C          0.95879        0.04478       -0.12288
C          2.44841        0.02596        0.01004
O          2.88700        0.09940        1.38273
C          3.33148       -0.75808       -0.93940
N          2.77643       -1.56725       -2.03047
C          3.29554        0.75370       -1.01112
N          4.45305        1.55215       -0.58093
H          0.63080        0.12430       -1.16395
H          0.54286        0.89999        0.42007
H          0.53033       -0.86856        0.30118
H          3.79760       -0.22118        1.49039
H          4.22957       -1.20175       -0.51598
H          2.04878       -1.07004       -2.54185
H          2.34214       -2.41416       -1.66408
H          2.77018        1.19159       -1.85710
H          5.05220        1.03584        0.05844
H          4.12769        2.36544       -0.05732
