14

C	3.179259	-0.850557	-1.108048
O	2.547388	0.03212	-0.220758
C	3.173958	1.18029	0.068303
C	4.356992	1.624237	-0.384525
C	4.930193	2.937037	0.045503
O	6.16565	2.805166	0.706824
H	2.518395	-1.719274	-1.222081
H	4.156355	-1.187245	-0.717823
H	3.340196	-0.383954	-2.096655
H	2.573414	1.779237	0.762911
H	4.967326	1.027675	-1.069102
H	4.184316	3.484154	0.660156
H	5.13094	3.57171	-0.834071
H	6.033829	2.181271	1.429166
