12
-1256.09
O          1.59554       -0.27355       -0.99521
C          2.65183       -0.04873       -0.06914
C          2.87956        1.40552        0.02057
C          2.21715        2.52436       -0.42698
C          3.00506        3.59379        0.02782
N          4.07415        3.17600        0.70963
O          3.99304        1.79237        0.70449
H          1.48826       -1.23715       -1.06188
H          3.54879       -0.56330       -0.42673
H          2.36063       -0.45560        0.90372
H          1.30223        2.54872       -0.99878
H          2.85159        4.65545       -0.10406
