14
-1497.17
N         -0.05404        0.02564       -1.30312
C          0.02297       -1.09089       -0.31321
C          1.26362       -0.65310        0.43797
C          1.22901        0.69471        0.46717
C         -0.03271        1.10130       -0.26524
C         -1.23318        0.63125        0.52545
C         -1.19864       -0.71745        0.49617
H          0.80842        0.05973       -1.84041
H          0.03588       -2.07494       -0.78058
H          1.97516       -1.30160        0.92084
H          1.90718        1.35710        0.97846
H         -0.07074        2.10423       -0.68964
H         -1.93560        1.25773        1.04809
H         -1.86795       -1.40135        0.99051
