15
-1650.42
C          1.01724        0.03456       -0.27611
C          2.32343        0.00760        0.00497
C          3.18884       -1.21187        0.21410
C          4.53205       -0.64096        0.60242
C          5.62289       -1.31812        0.97012
C          4.41606        0.79592        0.52334
C          3.17184        1.16135        0.18690
H          0.45177       -0.88486       -0.38500
H          0.48071        0.96991       -0.39613
H          3.27257       -1.78436       -0.71690
H          2.78648       -1.84763        1.00964
H          5.61779       -2.40268        1.01306
H          6.54235       -0.81009        1.24296
H          5.22798        1.47969        0.72345
H          2.83683        2.18194        0.07603
