14
-1522.05
C          0.90924        0.39164       -0.27930
C          2.35431        0.07204       -0.01255
C          2.84740       -1.13898        0.31510
C          2.10622       -2.37273        0.45054
C          2.68582       -3.52806        0.79885
C          3.27396        1.16603       -0.11083
N          4.01695        2.05351       -0.19085
H          0.60482        1.27814        0.28895
H          0.22429       -0.41083        0.00343
H          0.76024        0.60174       -1.34391
H          3.92208       -1.22704        0.49264
H          1.03740       -2.37579        0.25717
H          3.74856       -3.60834        1.00528
H          2.09580       -4.43592        0.88647
