17

N	3.288639	-1.291906	1.997987
C	2.544758	-1.126527	0.75216
C	2.313216	0.34433	0.421495
C	3.582359	1.134466	0.128335
N	4.4594	1.20483	1.271501
C	5.078974	2.343075	1.64904
O	5.010065	3.410631	1.077342
H	3.547762	-2.265903	2.138802
H	2.703336	-1.033327	2.791922
H	1.570051	-1.655092	0.752112
H	3.140037	-1.581922	-0.058303
H	1.76578	0.828406	1.250805
H	1.653319	0.402143	-0.459878
H	3.345199	2.168189	-0.164512
H	4.104002	0.674563	-0.73371
H	4.528198	0.349243	1.825128
H	5.683057	2.198531	2.579064
