14
-1365.61
C          0.77031       -3.31997       -1.54838
C          0.42103       -2.51953       -0.53242
C          0.71847       -1.05527       -0.46123
O          1.42799       -0.81311        0.75820
N          1.74759        0.56378        0.82228
C          1.14667        1.23541        1.84858
O          1.53112        2.31937        2.26698
H          0.52177       -4.37722       -1.53182
H          1.31229       -2.94726       -2.41206
H         -0.11873       -2.94258        0.31152
H         -0.22226       -0.49309       -0.45277
H          1.32708       -0.72698       -1.31205
H          2.71256        0.81321        0.63332
H          0.25460        0.72294        2.24440
