17

C	1.269756	0.384933	-0.150753
C	2.754388	0.330465	-0.086471
N	3.438437	1.403091	-0.074688
O	4.780889	1.163326	-0.013261
C	5.504747	2.37236	0.004591
C	6.976161	2.016846	0.051941
N	7.774652	3.224874	0.051185
H	0.894763	-0.132154	-1.049489
H	0.928189	1.428448	-0.172321
H	0.819162	-0.120769	0.719158
H	3.267597	-0.644684	-0.04836
H	5.232533	2.984529	0.881993
H	5.274824	2.966623	-0.900559
H	7.187622	1.307361	-0.776362
H	7.164145	1.461546	0.98573
H	7.75964	3.660513	-0.869297
H	8.748486	3.010852	0.249144
