18
-1799.49
C          0.99672        0.01835        0.01662
C          2.48432        0.00470       -0.04069
C          3.26781       -1.08050       -0.11488
C          4.71579       -0.72176       -0.06737
C          4.69585        0.78091       -0.34385
C          3.29756        1.25928        0.07431
N          2.82076        2.33969       -0.77233
H          0.58672       -0.99669        0.00883
H          0.57974        0.55166       -0.84304
H          0.65469        0.51013        0.93264
H          2.90992       -2.09963       -0.15709
H          5.13231       -0.94700        0.92031
H          5.29416       -1.25497       -0.82792
H          4.87158        0.94878       -1.41553
H          5.48944        1.30995        0.19463
H          3.30261        1.59163        1.11940
H          2.80522        2.01827       -1.73950
H          3.49145        3.10538       -0.74550
