15
-1488.77
C          0.79488        1.04266       -0.51922
O         -0.28896        0.29050        0.04839
C          0.94954       -0.40083       -0.13588
C          1.61277       -0.88497        1.11892
C          1.31244       -0.27154        2.49748
O          1.27364       -1.59056        3.10347
C          1.12962       -2.18189        1.78471
H          0.72933        1.29245       -1.57097
H          1.25661        1.80213        0.09876
H          1.01071       -1.14331       -0.92123
H          2.69753       -0.92056        0.93854
H          0.35170        0.23919        2.61421
H          2.11191        0.34665        2.91461
H          1.78392       -3.04769        1.65029
H          0.09017       -2.46720        1.59209
