13

C	0.897704	-0.123022	-0.04414
C	2.369289	0.036287	0.037966
C	3.105986	1.170417	0.047232
C	2.542616	2.532292	-0.027693
O	3.215495	3.535265	-0.014714
C	4.591123	1.050336	0.13939
O	5.175059	-0.003408	0.204248
H	0.641062	-0.745559	-0.918206
H	0.341675	0.819755	-0.110312
H	0.536416	-0.682462	0.835707
H	2.959176	-0.88932	0.101577
H	1.428327	2.600438	-0.100062
H	5.133043	2.023592	0.143956
