18

C	0.574058	-0.777116	0.099748
C	2.078464	-0.617021	-0.085646
C	2.619952	-1.546728	-1.164585
C	2.447107	0.820273	-0.408379
O	2.038028	1.635935	0.672617
N	2.306412	2.944225	0.425922
C	1.961752	3.702863	1.384086
H	0.19773	-0.093182	0.873858
H	0.317771	-1.806713	0.392912
H	0.039155	-0.553736	-0.83895
H	2.574216	-0.864158	0.871046
H	2.170149	-1.318463	-2.145431
H	2.385179	-2.59666	-0.93184
H	3.713196	-1.461875	-1.268662
H	1.945017	1.151131	-1.336903
H	3.536627	0.923484	-0.559323
H	2.148264	4.772583	1.25916
H	1.498593	3.319958	2.304688
