13

C	0.763628	0.2239	0.155927
C	2.092466	0.074837	0.022589
C	2.748251	-1.282777	-0.058713
C	3.3475	-1.571949	-1.418232
O	3.28118	-2.640012	-1.961395
C	2.961823	1.208423	-0.07224
C	3.73595	2.139992	-0.154599
H	0.306648	1.214451	0.205317
H	0.10782	-0.647687	0.225498
H	2.044193	-2.091258	0.183443
H	3.581785	-1.327877	0.667242
H	3.881432	-0.708142	-1.892994
H	4.407933	2.975559	-0.227413
