18
-1735.44
C          1.04996       -0.05553        0.07930
C          2.56075        0.05768       -0.00076
C          3.12787        1.18441        0.84867
C          4.51560        0.67959        1.18739
N          5.45548        0.95663        0.09045
C          4.24329       -0.81418        1.36324
O          3.16686       -1.15939        0.47242
H          0.69892       -0.89966       -0.52426
H          0.56542        0.85731       -0.27967
H          0.72253       -0.24842        1.10655
H          2.85906        0.17932       -1.04865
H          2.55209        1.29674        1.77580
H          3.11098        2.15109        0.33374
H          4.91073        1.13172        2.10165
H          5.16934        0.43308       -0.73954
H          6.37313        0.58242        0.33359
H          5.11069       -1.44640        1.15046
H          3.90723       -1.02886        2.38368
