21
-1929.2
C          2.40115       -1.65668        0.11181
C          3.72077       -0.99453       -0.29364
C          3.97638       -1.23666       -1.78242
N          3.63348        0.43465        0.03951
C          4.90965        1.14508       -0.14109
C          4.80050        2.61790        0.30409
N          4.23548        2.76166        1.65276
H          2.20934       -1.53296        1.18392
H          2.42790       -2.73244       -0.09500
H          1.55265       -1.23068       -0.43578
H          4.52385       -1.46219        0.28920
H          3.23925       -0.71728       -2.40543
H          3.91694       -2.30574       -2.01598
H          4.97396       -0.89946       -2.08108
H          3.39598        0.51957        1.03065
H          5.21728        1.13566       -1.19183
H          5.69350        0.65404        0.44891
H          4.16835        3.16966       -0.40006
H          5.79503        3.07455        0.28077
H          3.25032        2.49630        1.60433
H          4.23375        3.75186        1.89856
