22
-2061.5
C          1.59339        2.08310       -1.40423
C          2.85516        2.35565       -0.59921
C          3.96363        1.35936       -0.94691
C          5.24155        1.53832       -0.10010
C          6.22723        0.40496       -0.40975
C          5.90930        2.91958       -0.25463
N          6.27728        3.24015       -1.62951
H          0.81175        2.80199       -1.13872
H          1.21010        1.07661       -1.20758
H          1.78715        2.17375       -2.47812
H          2.62047        2.29235        0.46936
H          3.18147        3.38034       -0.80337
H          4.20365        1.43560       -2.01486
H          3.57975        0.34248       -0.79031
H          4.95954        1.43644        0.95674
H          6.50136        0.38177       -1.46947
H          5.78660       -0.56629       -0.15955
H          7.14420        0.51350        0.17905
H          6.80951        2.96085        0.37010
H          5.23977        3.70056        0.12069
H          6.97124        2.57472       -1.96622
H          6.72690        4.15440       -1.65389
