20

C	0.892476	0.015082	0.117237
C	2.40243	0.024957	0.029838
C	3.189341	1.056458	0.868026
C	4.221752	-0.043319	1.218596
C	5.492563	0.000866	0.38858
N	6.350911	1.087459	0.815982
C	3.197074	-1.093877	0.73958
H	0.463067	-0.84426	-0.422583
H	0.456816	0.931137	-0.313523
H	0.561685	-0.050561	1.167026
H	2.71069	0.088309	-1.027566
H	2.617915	1.383198	1.751241
H	3.555567	1.958761	0.349276
H	4.509359	-0.093854	2.280772
H	5.213388	0.029754	-0.689773
H	6.033747	-0.95063	0.535482
H	5.886011	1.981216	0.663529
H	7.204418	1.114008	0.263264
H	3.57899	-1.921472	0.119021
H	2.62714	-1.526013	1.577195
