16
-1628.88
C          1.43793       -0.45379       -0.88134
C          2.60902       -0.19661       -0.28593
C          3.28846        1.06939       -0.40493
C          4.46467        1.33005        0.18935
C          5.19680        2.59233        0.09982
C          4.81545        3.72714        1.01463
N          6.02929        2.95385        1.24318
H          0.96155       -1.42171       -0.76307
H          0.92640        0.28149       -1.49431
H          3.07574       -0.97179        0.31832
H          2.81404        1.84244       -1.00519
H          4.93639        0.55234        0.78842
H          5.60132        2.83206       -0.87809
H          4.01755        3.57896        1.73220
H          4.94209        4.74230        0.66110
H          6.85537        3.46832        0.93493
