13
-1317.11
C          0.99583        0.06687        0.02613
C          2.47780       -0.01261        0.00414
N          3.23384        1.09723       -0.03276
N          4.47239        0.62863       -0.12384
O          5.51927        1.50866       -0.25691
C          4.57473       -0.71931       -0.08229
C          3.28123       -1.17760       -0.00633
H          0.64445        1.10410        0.04556
H          0.59859       -0.44223        0.90997
H          0.58033       -0.41696       -0.86490
H          6.00493        1.26913        0.54431
H          5.52304       -1.22775       -0.13553
H          2.95292       -2.20687        0.02310
