15
-1580.88
O          0.99546       -0.12396        0.09058
C          2.20633       -0.04056        0.03959
C          3.20427       -1.19184        0.07077
C          4.52694       -0.38357       -0.02448
C          4.31090        0.71945       -1.13088
C          3.22931        1.18096       -0.07372
C          4.38517        0.84728        0.95254
H          3.06932       -1.84432       -0.79453
H          3.13489       -1.73802        1.01397
H          5.46547       -0.93718       -0.02425
H          3.92709        0.36976       -2.09351
H          5.14616        1.40663       -1.30631
H          2.83307        2.19154       -0.12141
H          5.22792        1.54700        0.98315
H          4.07237        0.61879        1.97545
