15

C	1.659797	0.623904	-2.023361
C	2.772909	0.632216	-1.03418
N	3.643494	1.563854	-1.021005
N	4.594837	1.579766	-0.077258
C	5.777776	2.334592	-0.420113
C	6.65679	2.501399	0.733179
C	7.390247	2.631995	1.686925
H	1.663469	-0.301022	-2.624669
H	1.752562	1.486074	-2.698401
H	0.677997	0.672725	-1.52248
H	2.815259	-0.192657	-0.294326
H	4.779823	0.700063	0.410307
H	5.448221	3.321472	-0.783756
H	6.356852	1.8762	-1.249702
H	8.038946	2.753199	2.534989
