16
-1615.54
C          0.89514        0.01283        0.19838
C          2.39796        0.07313       -0.01399
C          2.80673       -0.03975       -1.47672
C          3.15419        1.14305        0.82061
C          3.99547       -0.05348        1.30382
O          5.06659       -0.24412        1.82381
N          3.08498       -0.93856        0.80979
H          0.63262        0.02932        1.26213
H          0.47084       -0.90014       -0.23425
H          0.40314        0.86833       -0.27682
H          3.89608       -0.04101       -1.59868
H          2.41356        0.80530       -2.05229
H          2.42087       -0.96133       -1.92596
H          2.58836        1.62919        1.62092
H          3.71668        1.88641        0.25140
H          3.41527       -1.85804        0.54968
