17

C	0.960744	-0.011961	-0.041216
C	2.477596	0.007952	-0.072838
C	3.110988	-0.786938	-1.199285
S	3.114933	1.708018	-0.026086
C	2.573134	2.489059	-1.541364
O	2.445719	2.394569	1.079166
O	4.575004	1.62789	-0.076367
H	0.578891	0.630948	0.763925
H	0.605529	-1.038748	0.133006
H	0.532231	0.325171	-0.998339
H	2.875684	-0.338682	0.897918
H	2.73766	-0.459683	-2.182659
H	2.85748	-1.852631	-1.090984
H	4.204919	-0.68237	-1.183059
H	2.999143	1.966674	-2.406726
H	2.980623	3.506834	-1.477781
H	1.477093	2.522689	-1.576041
