15
-1542.95
O          1.11208       -0.16958        0.02297
C          2.54090       -0.06304        0.01211
C          3.20425       -0.55282       -1.24202
C          3.11191        0.92806       -0.96762
C          4.32453        1.72045       -0.59144
C          4.93161        2.10271       -1.87088
C          5.43554        2.41954       -2.91462
H          0.71233        0.50774        0.59507
H          3.06579       -0.23537        0.94653
H          2.57483       -0.96248       -2.02379
H          4.16676       -1.04144       -1.14918
H          2.40210        1.50716       -1.55030
H          5.02608        1.13594        0.01310
H          4.03207        2.60524       -0.01739
H          5.87997        2.69767       -3.84237
