18
-1770.03
C          2.84727       -1.19019       -1.26205
C          2.63366       -0.47118        0.03966
C          1.83363       -0.97114        0.99667
C          3.34288        0.85557        0.20788
C          4.84547        0.76451        0.18642
C          5.62808        1.21409       -1.02244
N          5.62982        2.00218        0.20557
H          2.57076       -0.54629       -2.10280
H          2.24392       -2.10186       -1.33002
H          3.89664       -1.48011       -1.37342
H          1.31608       -1.91752        0.87033
H          1.66982       -0.44527        1.93320
H          3.05154        1.31538        1.16139
H          2.98787        1.53943       -0.57438
H          5.22961       -0.04401        0.79752
H          5.09862        1.65322       -1.85924
H          6.54614        0.69662       -1.27073
H          6.49933        1.86715        0.72619
