11

O	0.959938	-0.101596	0.007879
C	2.281371	-0.029154	-0.002164
C	2.954532	1.150113	-0.003792
C	2.461246	2.51455	0.004217
N	3.474952	3.330085	-0.001246
C	4.583134	2.479637	-0.012325
N	4.344121	1.202983	-0.014312
H	0.670642	-1.020277	0.007324
H	2.858085	-0.962673	-0.009469
H	1.420982	2.847668	0.01332
H	5.594518	2.894214	-0.018962
