16
-1547.29
C          1.62156       -1.78241        1.22033
C          2.68115       -0.99439        0.45232
N          3.64430       -1.92637       -0.15190
C          2.06617       -0.07400       -0.62129
O          1.33655       -0.83134       -1.60746
C         -0.01421       -0.77322       -1.53267
O         -0.67858       -0.18004       -0.69902
H          0.89120       -1.10463        1.67544
H          2.07874       -2.36464        2.02861
H          1.08033       -2.48199        0.57403
H          3.22866       -0.36549        1.16374
H          3.17453       -2.45659       -0.88727
H          3.94908       -2.60766        0.54205
H          2.86287        0.45589       -1.15661
H          1.44230        0.69642       -0.15229
H         -0.44236       -1.36851       -2.35435
