15
-1460.73
C          0.97655       -0.01522        0.10358
C          2.48991       -0.01060        0.02822
C          3.14370        1.17178        0.75265
N          4.33810        0.59123        1.31361
C          4.25136       -0.78638        1.32496
S          5.35183       -1.81444        1.98621
N          3.08679       -1.15718        0.67905
H          0.56713       -0.88875       -0.41541
H          0.56250        0.88412       -0.36272
H          0.62604       -0.05760        1.14099
H          2.81780       -0.03712       -1.01855
H          2.53685        1.54608        1.58287
H          3.40117        1.99522        0.08297
H          5.06356        1.08634        1.81753
H          2.92832       -2.12454        0.42360
