16

C	1.78816	-1.141334	1.209323
C	2.093888	-0.293539	-0.016304
C	3.141921	0.782861	0.226668
N	4.418996	0.212606	0.570351
C	5.457044	0.944208	1.080993
N	5.489049	2.168418	1.430086
H	1.048016	-1.923055	0.982212
H	1.383347	-0.522205	2.025699
H	2.69386	-1.634181	1.594121
H	1.175197	0.198729	-0.374566
H	2.42761	-0.937308	-0.851086
H	2.812327	1.428331	1.061653
H	3.219202	1.440239	-0.663042
H	4.643433	-0.69305	0.179372
H	6.371554	0.340481	1.210791
H	4.594916	2.634289	1.252448
