15
-1505.95
O          1.01043        0.03845       -0.03850
C          2.42727       -0.02200       -0.05048
C          2.97187       -1.14877        0.83106
C          3.74993       -0.28397        1.81732
C          4.50812        0.77664        0.97283
C          3.02130        1.15527        0.72268
O          2.82811        0.83655        2.18227
H          0.67097       -0.85060       -0.23477
H          2.78394       -0.07628       -1.08341
H          3.63651       -1.81714        0.27613
H          2.18820       -1.73212        1.32266
H          4.26153       -0.72768        2.67144
H          5.08157        0.41482        0.11628
H          5.09417        1.50524        1.54027
H          2.78804        2.18761        0.46223
