18
-1764.72
C          1.09999        0.07192        0.08872
C          0.62198        0.60015        1.41102
C         -0.32339       -0.21451        2.25689
C          1.09613       -0.00735        2.70601
C          2.53489        0.43335       -0.16944
C          3.60997       -0.62351       -0.11400
N          3.17752       -0.06062       -1.38926
H          0.96009       -1.01458        0.03366
H          0.47561        0.50858       -0.69985
H          0.47290        1.67458        1.38627
H         -0.60647       -1.20584        1.92084
H         -1.10798        0.31071        2.79004
H          1.27122        0.65945        3.54296
H          1.76990       -0.85656        2.66805
H          2.77757        1.45102        0.10907
H          3.32826       -1.65278        0.06392
H          4.59693       -0.34341        0.23215
H          3.85579        0.61694       -1.73852
