19
-1849.94
C          3.31272       -1.20162       -0.78226
C          2.61477       -0.19642        0.11908
C          3.09278        1.24599       -0.08480
O          2.30258        2.10602        0.74213
C          4.58965        1.50377        0.17685
C          5.06435        1.10370        1.55127
C          5.53593        1.96722        2.46142
H          2.86932       -2.19398       -0.65259
H          4.37774       -1.28125       -0.54678
H          3.21047       -0.92094       -1.83516
H          2.72631       -0.49512        1.16833
H          1.53477       -0.23639       -0.07449
H          2.87722        1.53962       -1.11902
H          2.57476        1.95031        1.66410
H          4.78579        2.57309        0.02378
H          5.19355        0.96665       -0.56363
H          5.04078        0.04452        1.79825
H          5.59735        3.03184        2.26073
H          5.87971        1.62075        3.43147
