15

C	2.594629	-1.073958	0.33745
N	2.49546	0.167394	-0.393819
C	3.333519	1.209901	-0.301272
S	3.132135	2.595181	-1.196477
N	4.375823	0.962012	0.623687
C	5.748644	1.193039	0.167105
C	5.122382	2.092761	1.148356
H	1.643086	-1.614311	0.241041
H	2.79939	-0.882722	1.399177
H	3.402871	-1.716959	-0.048773
H	1.736844	0.292488	-1.053824
H	5.850731	1.587494	-0.850818
H	6.472685	0.429777	0.470088
H	5.368711	2.015248	2.21195
H	4.818911	3.079654	0.778978
