15
-1464.77
C          1.59402        0.29055       -1.71819
C          2.31405       -0.21223       -0.70614
C          2.97475        0.60086        0.36895
N          4.40385        0.27560        0.42710
C          5.26687        1.29161       -0.17042
C          5.15535        1.14689        1.32499
H          1.14518       -0.36755       -2.45630
H          1.44281        1.35831       -1.83756
H          2.43731       -1.29084       -0.63195
H          2.51350        0.32866        1.32629
H          2.77924        1.67160        0.22019
H          4.81358        2.15281       -0.64487
H          6.16266        0.92071       -0.65284
H          5.97653        0.67701        1.85306
H          4.61862        1.90297        1.88384
