14

O	1.114343	-0.323582	0.744548
S	2.31136	-0.08309	-0.039983
O	2.256636	0.091604	-1.48322
C	3.248131	1.260289	0.782726
C	4.532484	0.602167	1.274
C	4.210976	-0.893088	1.443377
N	3.432767	-1.31215	0.286781
H	2.59733	1.614088	1.593513
H	3.391917	2.056427	0.041196
H	5.326302	0.718034	0.518141
H	4.895153	1.057651	2.207364
H	5.113166	-1.513827	1.529232
H	3.6074	-1.060911	2.350494
H	3.998468	-1.433984	-0.553158
