20
-1910.29
C          2.29917       -0.47835       -1.55249
C          2.44399       -0.01668       -0.11168
C          3.25096        1.27101       -0.04236
C          2.56359        2.57592       -0.50316
N          3.21080        3.27555        0.63168
C          3.30471        1.97085        1.34177
C          4.58728        1.82593        2.13756
H          1.73490       -1.41486       -1.59734
H          3.27909       -0.64657       -2.01089
H          1.77112        0.26778       -2.15481
H          2.94845       -0.79878        0.46731
H          1.44934        0.12053        0.32825
H          4.24797        1.14560       -0.49107
H          1.46893        2.57387       -0.44013
H          2.85624        2.94020       -1.49218
H          4.11835        3.67291        0.38621
H          2.42384        1.77789        1.96992
H          5.47443        2.04028        1.53196
H          4.68346        0.80459        2.51984
H          4.59037        2.50439        2.99701
