14

C	0.978546	-0.03637	0.0546
C	2.487234	0.046647	0.034394
C	3.20281	1.097869	0.906793
C	4.190373	-0.027602	1.25507
N	3.194227	-0.994363	0.791508
H	0.62525	-0.927134	-0.489206
H	0.52647	0.848906	-0.420806
H	0.61657	-0.108617	1.091337
H	2.839588	0.130072	-1.016473
H	2.588951	1.398879	1.768741
H	3.596324	1.995452	0.40983
H	5.108839	0.025658	0.636658
H	4.495179	-0.136737	2.309985
H	3.53646	-1.79474	0.264749
