18

N	0.752979	-0.116135	-0.472501
C	2.194892	-0.283825	-0.355113
C	2.577346	-1.424586	-1.303745
O	2.059508	-1.183644	-2.575117
C	2.889502	1.021205	-0.760278
C	2.511598	2.177997	0.108457
C	1.803046	3.238469	-0.287941
H	0.461775	0.796027	-0.125472
H	0.252224	-0.823444	0.060407
H	2.523513	-0.549476	0.672278
H	2.199475	-2.380313	-0.877424
H	3.674302	-1.518243	-1.372086
H	1.193515	-0.778437	-2.386689
H	2.644977	1.224741	-1.814833
H	3.979227	0.855686	-0.705549
H	2.829077	2.116567	1.15838
H	1.466434	3.339828	-1.325123
H	1.545221	4.047753	0.400758
