15
-1417.48
N          0.33999        0.24715       -0.36461
C          1.67105       -0.25249       -0.01104
C          2.43052       -1.05876       -1.02178
C          2.89704        0.32727       -0.67150
O          4.06231        0.42184        0.17168
N          5.17431        0.32941       -0.67501
C          6.24204        0.42620        0.03984
H          0.11163        1.07374        0.18765
H         -0.37304       -0.44730       -0.14223
H          1.78032       -0.55331        1.02848
H          2.00187       -1.20100       -2.00648
H          3.02794       -1.89127       -0.67249
H          2.74826        1.10927       -1.40879
H          7.23024        0.37171       -0.44011
H          6.22304        0.56419        1.13442
