16

C	-0.195332	0.66833	0.152493
C	-0.439827	-0.717502	-0.368791
C	0.959616	-0.266259	-0.068074
C	1.750735	-0.801903	1.084875
C	1.129147	-1.612844	2.18414
C	2.056331	-2.267601	1.202688
H	-0.326992	1.516628	-0.524356
H	-0.476973	0.870433	1.190138
H	-0.722118	-0.837248	-1.418056
H	-0.918161	-1.439401	0.298938
H	1.575853	-0.056085	-0.950335
H	2.552408	-0.126071	1.405496
H	0.064728	-1.85622	2.122486
H	1.483727	-1.445266	3.20463
H	3.04984	-2.574347	1.540416
H	1.609237	-2.929453	0.454732
