13

C	2.858892	-1.263219	0.478778
N	2.352228	-0.022259	-0.041327
C	3.093508	1.128248	-0.003374
C	2.690336	2.431824	-0.223246
N	3.674252	3.370535	-0.1556
C	4.823061	2.846539	0.112294
S	4.801658	1.111723	0.31583
H	2.114652	-2.055978	0.321549
H	3.106265	-1.222118	1.558122
H	3.772357	-1.559909	-0.062947
H	1.353783	0.123589	0.035369
H	1.662696	2.724015	-0.447008
H	5.760882	3.396709	0.213311
