18

C	1.450892	0.087	-0.836273
N	2.860812	0.374523	-0.879099
C	3.484031	0.512327	0.410935
C	4.956467	0.825385	0.259599
C	5.794648	-0.076274	-0.658744
C	6.071033	1.220828	-1.422358
O	5.171434	1.959368	-0.594489
H	1.039793	0.05579	-1.856652
H	0.848806	0.815242	-0.248865
H	1.279804	-0.906487	-0.388368
H	3.041004	1.227746	-1.405034
H	3.386734	-0.43409	0.974548
H	3.017439	1.301957	1.045118
H	5.40381	0.988666	1.259044
H	5.182098	-0.800394	-1.211939
H	6.659502	-0.572315	-0.198874
H	7.107033	1.599124	-1.344082
H	5.77024	1.239122	-2.484667
