8
-902.44
C          1.00000        0.00000        0.00000
C          2.44400        0.00000        0.00000
C          3.63416        0.00000        0.00000
C          5.17016       -0.00000       -0.00000
N          6.33038       -0.00001       -0.00001
H          0.59642        1.01429        0.06906
H          0.61735       -0.56948        0.85289
H          0.60365       -0.46127       -0.90939
