15

C	3.313112	-0.696049	0.060865
C	2.562097	0.357432	0.404749
C	2.682869	1.716195	-0.139441
C	1.721384	2.635483	0.085959
N	3.825481	1.971868	-0.898753
C	3.949577	2.924447	-1.885147
N	5.003955	3.306648	-2.481918
H	3.158356	-1.672592	0.524472
H	4.088891	-0.635437	-0.708472
H	1.775966	0.231995	1.15587
H	0.815072	2.349292	0.620616
H	1.800677	3.665002	-0.265552
H	4.658178	1.446115	-0.656575
H	2.983318	3.35999	-2.182204
H	5.837046	2.840461	-2.106568
