15
-1533.34
C          4.16716       -1.13581       -1.44286
C          4.05780       -0.47511       -0.07749
C          3.14515        0.71443       -0.11532
C          3.53490        1.96063        0.17426
O          2.63690        3.02805        0.12984
C          3.15578        4.25610        0.42828
O          4.30651        4.53877        0.72782
H          4.82253       -2.01086       -1.38752
H          4.58511       -0.44587       -2.18362
H          3.18786       -1.46980       -1.80198
H          5.05913       -0.19097        0.26708
H          3.66366       -1.19783        0.64612
H          2.10732        0.53327       -0.38531
H          4.54770        2.22128        0.45714
H          2.34299        4.99562        0.35585
