14
-1474.75
C          1.48502       -0.79418        0.08425
C          2.74588       -0.37380       -0.06863
C          3.10646        1.02344       -0.12861
C          4.37184        1.44287       -0.27848
C          4.73081        2.84053       -0.33804
C          5.99188        3.26364       -0.48311
H          1.25964       -1.85535        0.12428
H          0.65157       -0.10462        0.17322
H          3.54248       -1.11029       -0.15233
H          2.29868        1.74778       -0.04591
H          5.17998        0.71895       -0.36065
H          3.93252        3.57575       -0.26034
H          6.82746        2.57571       -0.56504
H          6.21518        4.32526       -0.52282
