12

O	1.467713	-1.08831	0.174524
C	2.543319	-0.573126	0.007235
C	2.778621	0.880134	0.067663
C	4.0023	1.391004	-0.11564
C	4.335259	2.852112	-0.0409
C	5.068097	3.320456	-1.215238
N	5.65443	3.674264	-2.147394
H	3.457925	-1.185387	-0.211439
H	1.905117	1.509747	0.269498
H	4.839909	0.712659	-0.322844
H	4.969572	3.042609	0.844056
H	3.425277	3.459967	0.081109
