16
-1638.72
C          1.03954        0.13457        0.18552
C          2.35269       -0.06318        0.02238
C          3.00012       -1.40981       -0.10857
C          4.24967       -1.09407       -0.93256
N          4.61949        0.31491       -0.66591
C          3.91008        1.27820       -1.50801
C          3.38915        0.95338       -0.14359
H          0.62643        1.13694        0.23890
H          0.34871       -0.69859        0.26845
H          2.36478       -2.14663       -0.60692
H          3.28058       -1.78013        0.88341
H          5.07303       -1.75526       -0.64109
H          4.06972       -1.26255       -2.00285
H          4.40575        2.23202       -1.64427
H          3.38054        0.91838       -2.38186
H          3.54335        1.65542        0.66727
