14

O	4.287242	0.326055	1.91832
C	4.17529	1.475875	1.573715
N	4.636986	1.962645	0.387214
O	4.204658	3.197085	-0.022921
C	5.271772	4.095348	-0.143404
C	6.037902	4.113772	-1.429045
C	5.042303	5.198591	-1.109665
H	3.711328	2.286895	2.184911
H	4.887969	1.315183	-0.357932
H	5.799044	4.28975	0.798644
H	5.747351	3.382703	-2.189033
H	7.106285	4.342424	-1.395655
H	5.401126	6.197654	-0.851113
H	4.089633	5.174311	-1.644895
