19
-1780.39
C          0.97411        1.05718        0.49584
N          2.41292        0.97118        0.70437
C          3.13657        1.55378       -0.43469
C          4.63501        1.46623       -0.14422
N          5.05365        1.89120        1.21360
C          5.43753        0.37230       -0.81547
C          5.58435        1.79234       -1.27337
H          0.45464        0.64051        1.36306
H          0.66226        0.49185       -0.38858
H          0.65119        2.09774        0.38764
H          2.68439       -0.00900        0.78741
H          2.86662        2.61028       -0.55426
H          2.88802        1.02664       -1.36262
H          5.61174        1.16413        1.65611
H          4.20041        1.93843        1.78250
H          4.92643       -0.31986       -1.47382
H          6.27225       -0.06972       -0.28385
H          6.50253        2.31633       -1.03130
H          5.16825        2.06532       -2.23564
