13

O	0.939611	0.021143	-0.084764
S	2.392498	0.023008	-0.225638
O	3.000661	0.149427	-1.544348
C	3.092544	-1.394625	0.671674
C	3.379197	-0.896564	2.083709
C	3.521825	0.602313	2.019515
C	3.081609	1.200821	0.914326
H	4.008816	-1.658987	0.126468
H	2.362771	-2.211724	0.602276
H	4.285857	-1.36499	2.497171
H	2.554976	-1.147635	2.773903
H	3.934981	1.154725	2.868419
H	3.046584	2.265828	0.679949
