17

C	1.279554	-0.148561	-0.367419
O	2.679215	-0.139595	-0.417079
C	3.271924	1.064386	-0.278075
C	4.594081	1.208917	-0.103027
C	5.53097	0.048065	0.00682
C	5.181742	2.584917	0.005613
O	5.856378	2.794415	1.225249
H	0.951318	-1.180244	-0.550017
H	0.836509	0.502558	-1.143751
H	0.89941	0.172727	0.619904
H	2.60776	1.938195	-0.344814
H	4.989324	-0.899931	0.121547
H	6.204399	0.189781	0.866635
H	6.171212	-0.028635	-0.889744
H	4.394354	3.346744	-0.168571
H	5.943587	2.733965	-0.77959
H	5.232963	2.590096	1.93133
