20
-1937.27
C          0.98270        0.01244        0.00777
C          2.50066        0.01684        0.04269
C          3.08144        1.12342        0.92084
C          4.51130        0.65236        1.13594
C          4.35123       -0.84628        1.39844
N          5.54730       -1.59370        1.03581
C          3.10207       -1.27501        0.61334
H          0.61349       -0.80772       -0.61619
H          0.60429        0.95194       -0.40810
H          0.55868       -0.10764        1.01046
H          2.87405        0.14928       -0.98216
H          2.55206        1.18962        1.87847
H          3.03927        2.10269        0.43499
H          5.10216        0.84122        0.23025
H          4.99821        1.16960        1.96839
H          4.16371       -0.99976        2.46847
H          5.74814       -1.46264        0.04484
H          5.37413       -2.59117        1.15537
H          3.32680       -1.97744       -0.19809
H          2.40344       -1.78574        1.28873
