15
-1467.11
N          0.84699        1.76056       -0.04334
N          2.23653        1.86210        0.18112
C          3.08715        0.88289       -0.30416
O          2.71411       -0.09778       -0.93869
C          4.52833        1.13075       -0.01782
C          5.56460        0.06523       -0.29046
C          5.49802        1.28279       -1.16642
H          0.55339        0.84083        0.30734
H          0.71295        1.66808       -1.05750
H          2.60001        2.67894        0.66545
H          4.71557        1.74979        0.85451
H          5.23635       -0.87981       -0.71016
H          6.39534       -0.02304        0.39910
H          6.28610        2.02020       -1.07403
H          5.12600        1.15247       -2.17748
