12
-1362.88
C          0.95195        0.09665       -0.00606
C          2.45227        0.00245       -0.00211
C          3.12058       -1.16599        0.00244
C          2.47430       -2.43317        0.00251
C          1.93381       -3.50439        0.00094
C          3.20222        1.21827       -0.00227
N          3.81334        2.20371       -0.00222
H          0.61583        1.13951        0.01109
H          0.52759       -0.39515        0.87579
H          0.53566       -0.36468       -0.90796
H          4.20916       -1.17727        0.00572
H          1.45376       -4.45595       -0.00006
