17

C	0.970396	-0.185624	0.060946
N	2.403928	-0.03792	0.066086
C	2.861368	1.298688	-0.215991
C	4.36427	1.386989	-0.062399
O	4.736321	2.718005	-0.349557
N	6.085141	2.871618	-0.284512
C	6.451339	4.06439	-0.519736
H	0.69815	-1.236278	0.242461
H	0.474424	0.137102	-0.881885
H	0.52831	0.409648	0.877065
H	2.824215	-0.694436	-0.587788
H	2.395863	1.994246	0.503469
H	2.580892	1.673269	-1.226863
H	4.873997	0.695922	-0.759415
H	4.660248	1.109164	0.963427
H	7.524577	4.267375	-0.48752
H	5.737232	4.868601	-0.746789
