15
-1482.27
C          1.08316       -0.10541       -0.18473
C          2.57528        0.20116       -0.25839
C          3.27070       -0.90528       -1.01996
O          4.06414       -0.73010       -1.94290
C          2.77295        1.60384       -0.81035
N          3.04484        1.81044       -2.12721
N          2.65588        2.64569       -0.04886
H          0.56091        0.62919        0.43714
H          0.90422       -1.09770        0.24269
H          0.62505       -0.08443       -1.17980
H          2.99118        0.17865        0.75657
H          3.06663       -1.92824       -0.65783
H          3.61138        1.08361       -2.57038
H          3.39955        2.74501       -2.30184
H          2.42700        2.37827        0.91318
