16

N	2.543066	-0.423506	1.509877
C	2.536261	-0.000745	0.115292
C	2.965634	1.418344	-0.036302
C	4.050051	1.894104	-0.658464
O	4.19871	3.239144	-0.632245
C	3.001626	3.774143	-0.058586
C	2.256044	2.596697	0.588098
H	2.19469	-1.377824	1.58194
H	1.890186	0.144992	2.047233
H	1.544546	-0.11943	-0.379912
H	3.23368	-0.641834	-0.449024
H	4.8406	1.348535	-1.177076
H	2.406803	4.22646	-0.871945
H	3.281381	4.569857	0.646788
H	1.175119	2.619776	0.367872
H	2.363823	2.582207	1.689274
