17
-1618.81
C          0.83990       -0.04491        0.16151
C          2.35625        0.06203        0.04290
C          3.06310       -0.79859        1.08661
O          2.72294       -0.41312       -1.25869
C          2.79488        1.54265        0.15847
N          3.34082        2.14700       -0.93710
N          2.65376        2.24375        1.23710
H          0.34728        0.57518       -0.59604
H          0.48357        0.27839        1.14462
H          0.50600       -1.07427       -0.00913
H          2.77114       -0.52904        2.10635
H          4.15073       -0.68830        1.00858
H          2.84223       -1.86033        0.93079
H          3.69270       -0.32365       -1.31358
H          2.98063        1.80287       -1.82296
H          3.32112        3.15830       -0.85714
H          2.22873        1.68763        1.98530
