13
-1374.13
N          1.02758        0.04012        0.25455
C          2.39134       -0.00800        0.08852
C          3.14749       -1.10440       -0.04920
C          4.53599       -0.65594       -0.20335
O          5.50069       -1.38007       -0.34937
N          4.53159        0.71262       -0.15896
C          3.22479        1.24778        0.04321
H          0.54479       -0.81608       -0.01098
H          0.58492        0.87455       -0.12411
H          2.85755       -2.13835       -0.05150
H          5.38867        1.24307       -0.22576
H          2.96382        1.89541       -0.79790
H          3.19942        1.80132        0.98555
