18

C	0.966	-0.099019	-0.028828
C	2.478247	0.083328	0.068525
N	3.214157	-0.635652	-0.964745
C	2.924626	1.560399	0.024339
C	2.269233	2.416831	1.095438
N	4.366112	1.712607	0.096762
H	0.430699	0.33755	0.82764
H	0.705645	-1.168416	-0.071439
H	0.576377	0.37549	-0.946426
H	2.821927	-0.31761	1.04182
H	2.83638	-0.399443	-1.882937
H	3.096393	-1.640933	-0.859086
H	2.602951	1.949694	-0.964548
H	2.466196	2.002772	2.100087
H	1.180196	2.491447	0.968596
H	2.690842	3.431398	1.061889
H	4.776107	0.979129	-0.483761
H	4.672904	1.508807	1.048863
