10
-1144.88
C          0.87141        0.09843       -0.00365
C          2.07113        0.07045       -0.00066
C          3.49381        0.03826        0.00295
C          4.33754        1.12859        0.00439
C          5.69582        0.69757        0.00823
N          5.91436       -0.61482        0.00964
S          4.44090       -1.38490        0.00630
H         -0.19406        0.12024       -0.00627
H          4.01212        2.15993        0.00288
H          6.56527        1.34300        0.01009
