20
-1921.19
C          0.92645       -0.13203        0.16547
C          2.43058       -0.05535        0.05354
C          3.07110       -1.42288        0.04474
C          3.12507        1.10680       -0.03282
C          2.46852        2.46782       -0.11895
C          4.63548        1.18878       -0.02538
N          5.14102        1.43259       -1.36930
H          0.46544        0.80078        0.49986
H          0.64147       -0.88986        0.90510
H          0.48952       -0.41343       -0.79847
H          2.51107       -2.09644       -0.61428
H          3.06673       -1.84812        1.05365
H          4.09831       -1.42197       -0.32758
H          1.41712        2.42525       -0.41191
H          2.96322        3.08964       -0.87330
H          2.54034        2.98041        0.84607
H          5.10056        0.28891        0.38721
H          4.95186        2.00709        0.63254
H          4.84515        0.66267       -1.96799
H          6.15845        1.40344       -1.35050
