19

C	0.934387	0.550958	-0.809787
C	2.314297	0.565987	-0.184629
C	3.112075	1.813339	-0.497068
O	2.618053	2.761384	-1.06081
C	4.581462	1.807199	-0.089311
C	5.398559	1.260384	-1.265041
C	5.041254	3.200986	0.314041
H	0.374653	-0.350653	-0.520078
H	1.000939	0.580416	-1.90746
H	0.359245	1.435577	-0.500605
H	2.91399	-0.313557	-0.480389
H	2.257212	0.504831	0.918531
H	4.695661	1.111971	0.761375
H	5.293956	1.919747	-2.140984
H	5.076247	0.249797	-1.560096
H	6.466061	1.207711	-1.00144
H	4.852163	3.909644	-0.505603
H	6.116336	3.206827	0.548721
H	4.495019	3.564482	1.197475
