15
-1540.02
C          1.08998        0.00483       -0.18529
N          2.51637       -0.01417        0.02969
C          3.28099       -1.13690        0.23049
C          4.56292       -0.81287        0.44246
C          4.75055        0.68568        0.39633
C          3.30653        1.11192        0.10849
N          2.95177        2.34470       -0.02700
H          0.70680        1.01916       -0.33721
H          0.56990       -0.42255        0.67874
H          0.82926       -0.58560       -1.07034
H          2.83479       -2.12190        0.20688
H          5.36062       -1.51631        0.62641
H          5.08359        1.08826        1.35563
H          5.41215        0.99502       -0.41645
H          3.76532        2.95653        0.08335
