12

O	1.036391	-0.104237	0.611141
C	2.164222	-0.020155	0.231751
C	2.839163	1.233961	-0.251556
C	4.300874	1.243395	0.166686
C	4.887882	-0.076286	-0.205396
N	4.249307	-1.177425	-0.229217
O	2.926811	-1.155532	0.201052
H	2.267541	2.090144	0.127422
H	2.761643	1.242439	-1.352928
H	4.396504	1.387797	1.258593
H	4.858086	2.063703	-0.307447
H	5.936477	-0.168514	-0.510201
