10

O	1.027541	0.087653	0.195499
C	2.212587	-0.003953	0.077207
O	2.982516	1.146346	-0.004477
C	4.310759	1.08163	-0.138752
C	4.962641	-0.100973	-0.200396
N	4.279814	-1.290139	-0.126198
C	2.99968	-1.244494	0.003282
H	4.78479	2.064459	-0.191215
H	6.047748	-0.140734	-0.312169
H	2.421755	-2.174065	0.065759
