14
-1385.93
C          0.93325       -0.00676        0.00676
C          2.44845       -0.04813        0.00313
O          2.93567        1.29025        0.00780
C          4.36075        1.33194        0.00384
C          4.80144        2.73036        0.00976
C          5.16223        3.87623        0.01468
H          0.51527       -1.01729        0.00330
H          0.56016        0.53319       -0.86982
H          0.56414        0.52554        0.88967
H          2.80389       -0.56915       -0.89267
H          2.80798       -0.57681        0.89278
H          4.73930        0.82439       -0.89045
H          4.74458        0.81522        0.89058
H          5.47224        4.89542        0.01915
