19
-1847.87
C          1.11443        0.03911       -0.37230
C          2.59596        0.15731       -0.69087
C          3.42752        0.36306        0.57544
C          4.88951        0.51933        0.26274
O          5.24594        1.78162       -0.31691
C          5.92742       -0.09254        1.16365
C          5.69875       -0.65631       -0.21062
H          0.54346       -0.14592       -1.28774
H          0.73731        0.96039        0.08301
H          0.92525       -0.78874        0.31888
H          2.75249        0.99009       -1.38595
H          2.92439       -0.75173       -1.20826
H          3.27142       -0.48532        1.25346
H          3.08130        1.25748        1.10805
H          5.23649        2.48845        0.35114
H          5.60175       -0.68520        2.01021
H          6.84803        0.45278        1.33479
H          6.45065       -0.47503       -0.97038
H          5.21338       -1.62150       -0.29098
