15
-1400.29
C          1.05220       -0.09472        0.02404
C          2.57146       -0.04556        0.05572
C          3.08701        1.38734       -0.04030
C          4.60881        1.43943       -0.00826
O          5.04710        2.78912       -0.08971
H          0.70497       -1.13037        0.09312
H          0.66519        0.33193       -0.90682
H          0.62410        0.46380        0.86253
H          2.96773       -0.64028       -0.77557
H          2.92681       -0.50816        0.98390
H          2.68638        1.99214        0.78278
H          2.72521        1.85912       -0.96230
H          5.04506        0.88198       -0.84349
H          4.99361        1.01611        0.92490
H          4.72180        3.15202       -0.93124
