13
-1386.81
C          2.65046        0.41770        0.85682
C          2.31123        0.10067       -0.62407
C          2.88513        1.42648       -0.84617
C          2.63659        2.66794       -1.31444
N          3.09488        3.55853       -0.35138
C          3.48945        2.82160        0.68086
N          3.46135        1.49714        0.36629
H          3.23037       -0.34704        1.38258
H          1.82938        0.74726        1.50473
H          1.26633       -0.02832       -0.91100
H          2.90914       -0.72746       -1.02223
H          2.06225        3.00603       -2.16573
H          3.80120        3.19206        1.64730
