15

O	4.235882	-1.027909	-0.659605
C	3.202604	-0.565269	0.164239
C	3.269552	0.922291	0.285125
C	4.207834	1.658181	-0.324392
N	4.327032	3.032692	-0.247314
C	5.278464	3.801378	-0.886732
N	6.219909	3.460979	-1.667373
H	4.177586	-1.984996	-0.718731
H	3.257545	-1.012109	1.181211
H	2.203429	-0.849231	-0.233358
H	2.500331	1.394221	0.907217
H	4.957769	1.154382	-0.938326
H	3.65679	3.528948	0.325882
H	5.159479	4.871152	-0.648178
H	6.248574	2.45146	-1.830954
