15
-1513.84
C         -1.48333        0.76458        0.25591
C         -1.34008       -0.69514       -0.16174
C          0.01970       -1.21063        0.18284
O          1.01526       -0.93843       -0.82024
C          1.13084       -0.22468        0.41501
C          0.84158        1.24165        0.35620
O         -0.40974        1.53931       -0.28004
H         -2.42086        1.17110       -0.13794
H         -1.50659        0.87256        1.34678
H         -1.49605       -0.79086       -1.24340
H         -2.11018       -1.29734        0.33474
H          0.03463       -2.18206        0.65308
H          1.95483       -0.47872        1.06574
H          0.82000        1.65856        1.36951
H          1.63048        1.75883       -0.19799
