14
-1456.06
C         -1.27074        0.02602       -0.48236
C         -0.36124       -0.54545        0.68817
C         -0.62296        0.89474        1.30558
C         -0.29988        1.25330       -0.20802
C          1.07377        0.71564       -0.44448
C          1.03331       -0.48548        0.15377
H         -1.18156       -0.46309       -1.45803
H         -2.33318        0.17389       -0.25754
H         -0.67254       -1.43425        1.23279
H         -1.63862        1.10535        1.65954
H          0.09214        1.24499        2.05737
H         -0.54815        2.23896       -0.59700
H          1.89005        1.18480       -0.96818
H          1.80814       -1.22926        0.23443
