17

C	1.771189	-0.335758	1.118076
N	3.044614	0.18419	0.669245
C	3.046524	1.561877	0.201798
C	2.472407	2.529734	1.231524
C	4.472311	2.023988	-0.123235
N	5.436605	1.317519	0.508908
O	4.678849	2.971926	-0.853206
H	1.865701	-1.415363	1.306753
H	0.938915	-0.186234	0.397997
H	1.473844	0.128899	2.069699
H	3.396502	-0.407252	-0.081291
H	2.478829	1.696244	-0.742875
H	2.987323	2.412898	2.198068
H	1.394914	2.375489	1.386047
H	2.620647	3.558624	0.875142
H	5.154341	0.573255	1.136927
H	6.402386	1.596685	0.405151
