19
-1811.94
C          0.96284       -0.06695        0.07828
C          2.49469       -0.00609       -0.00869
C          3.11744       -0.69973        1.21519
C          2.95131       -0.76146       -1.26881
C          2.92768        1.47344       -0.03220
N          3.50026        2.03299       -1.13171
N          2.74145        2.26440        0.97778
H          0.50119        0.45024       -0.77066
H          0.59002        0.41181        0.99041
H          0.60580       -1.10261        0.07783
H          2.75258       -0.27685        2.15724
H          4.20836       -0.59541        1.21156
H          2.88046       -1.76965        1.22784
H          2.48240       -0.35792       -2.17284
H          2.68505       -1.82323       -1.21240
H          4.03757       -0.69794       -1.39943
H          3.19045        1.71026       -2.03822
H          3.52634        3.04602       -1.05718
H          2.29880        1.76906        1.75644
