17
-1610.85
C          1.06282       -0.30184       -0.04402
C          2.57370       -0.26136       -0.21733
C          3.17774        0.98268        0.43921
N          4.62811        1.00394        0.22308
C          5.33935        1.84392        1.18036
C          5.39031        0.34055        1.27648
H          0.65274       -1.20268       -0.50998
H          0.59188        0.56825       -0.51236
H          0.78978       -0.31249        1.01540
H          2.81203       -0.27638       -1.28754
H          3.00563       -1.16804        0.22407
H          2.90024        1.00937        1.50153
H          2.74642        1.87985       -0.02215
H          4.76823        2.39249        1.91950
H          6.21304        2.35877        0.79771
H          6.29574       -0.15955        0.95493
H          4.85298       -0.14959        2.07790
