16

C	0.995203	-0.005271	0.001937
C	2.504395	-0.039864	-0.096318
O	2.881474	-1.161889	-0.914665
C	3.287179	-0.658748	-2.099963
C	3.390851	0.673513	-2.153686
C	3.110974	1.222219	-0.780234
N	4.310333	1.791957	-0.19925
H	0.669858	0.808873	0.667768
H	0.605895	-0.956019	0.393057
H	0.55728	0.165553	-0.994028
H	2.961149	-0.195157	0.895475
H	3.485344	-1.404318	-2.872641
H	3.724273	1.265847	-3.003248
H	2.347339	2.021597	-0.800806
H	5.048208	1.090678	-0.160986
H	4.140185	2.108359	0.753889
