16

C	0.990577	-0.045548	0.025008
N	2.417512	0.090648	0.178068
C	2.936531	1.442679	0.067052
C	2.521159	2.284341	1.268166
C	4.451831	1.380859	-0.052428
H	0.717774	-1.111377	0.009152
H	0.578797	0.424823	-0.896856
H	0.458903	0.403381	0.878939
H	2.890364	-0.502189	-0.499016
H	2.540622	1.948151	-0.847324
H	2.887905	1.819022	2.196853
H	1.42792	2.38204	1.345341
H	2.937275	3.300071	1.194647
H	4.883156	0.893932	0.836535
H	4.885526	2.387244	-0.144548
H	4.759658	0.802843	-0.93972
