15
-1589.08
C          0.98237       -0.01360        0.10006
C          2.47111        0.01861       -0.05113
C          3.15963        1.16067       -0.20444
O          4.52901        1.22964       -0.35167
C          5.23559        0.04734       -0.34840
C          4.67233       -1.15788       -0.20297
C          3.18938       -1.30795       -0.02746
H          0.54643        0.99074        0.07275
H          0.70626       -0.47251        1.05480
H          0.53082       -0.59610       -0.70950
H          2.72444        2.15095       -0.23185
H          6.29419        0.22289       -0.47848
H          5.28420       -2.05327       -0.20930
H          2.80253       -1.94695       -0.82942
H          2.99608       -1.81062        0.92722
