14
-1431.46
C          0.95220        0.02932        0.06394
C          2.44596        0.07286        0.02367
C          3.13718        1.21423        0.11992
C          4.59305        1.06748       -0.06913
N          5.26840       -0.03194        0.03784
O          4.48943       -1.12568        0.49442
C          3.19644       -1.22251       -0.12235
H          0.58804       -0.96473        0.34901
H          0.53873        0.27056       -0.91911
H          0.55603        0.74239        0.79736
H          2.70601        2.20037        0.21715
H          5.12327        1.98673       -0.36414
H          2.67148       -2.03046        0.39634
H          3.30854       -1.50471       -1.17502
