16
-1623.49
C          1.00000        0.00000        0.00000
C          2.44400        0.00000        0.00000
C          3.63416        0.00000        0.00000
C          5.06718       -0.00300        0.04361
C          5.82653       -0.72469       -1.03812
C          5.83136        0.77473       -1.00148
N          7.06770        1.47778       -0.64886
H          0.60597        1.02086        0.01163
H          0.60592       -0.52054        0.87824
H          0.60601       -0.50032       -0.88995
H          5.49299       -0.04801        1.04135
H          5.27078       -1.20507       -1.83572
H          6.72810       -1.25571       -0.75624
H          5.25165        1.27073       -1.77841
H          7.56384        1.00972        0.10819
H          6.85665        2.41540       -0.30721
