14

C	2.407932	-0.863121	-0.914784
O	2.057336	0.288377	-0.202537
C	3.132913	1.105409	0.071746
C	3.638592	2.051378	-0.99169
C	2.866663	2.553985	0.204269
O	3.525821	3.219012	1.222364
H	1.487645	-1.434378	-1.100636
H	3.110919	-1.503052	-0.346425
H	2.878382	-0.620982	-1.887322
H	3.887392	0.69262	0.759058
H	3.125971	2.046064	-1.957603
H	4.71285	2.253396	-1.021054
H	1.823705	2.848411	0.017918
H	3.721491	4.109372	0.912086
