17
-1715.94
C          2.54261       -0.97888        1.53034
C          3.61223       -0.28224        0.69968
C          3.35205        1.21998        0.51855
C          3.42253        1.97993        1.82006
C          2.42028        2.71828        2.31545
C          4.37433        1.85225       -0.41504
O          5.38450        1.29191       -0.83367
H          2.73958       -2.05504        1.56973
H          1.54955       -0.83207        1.09402
H          2.52725       -0.60620        2.55904
H          3.65395       -0.76300       -0.28617
H          4.59269       -0.44952        1.16432
H          2.37406        1.35552        0.03994
H          4.35288        1.91037        2.38370
H          1.46825        2.81597        1.80206
H          2.53040        3.23813        3.26297
H          4.15013        2.88943       -0.71976
