16
-1551.14
C          1.94090       -0.01265        0.48267
O          3.35231        0.18730        0.56405
C          3.80096        1.25432       -0.15905
O          3.09986        1.97416       -0.86110
C          5.32458        1.38703       -0.02086
C          5.99915        0.50607       -1.06473
N          5.73146        2.79652       -0.18776
H          1.68893       -0.89183        1.08136
H          1.63803       -0.20055       -0.55203
H          1.40857        0.85064        0.89307
H          5.61586        1.07451        0.98742
H          5.71794        0.80239       -2.08226
H          5.70459       -0.54219       -0.93826
H          7.09016        0.55946       -0.98243
H          5.23537        3.18073       -0.99603
H          6.72395        2.84940       -0.40547
