13
-1405.85
C          0.97690       -0.19910       -0.07110
C          2.30595       -0.09216       -0.10828
O          2.93906        1.12202       -0.04296
C          4.31043        1.15850       -0.04892
C          4.99456        2.30626        0.00000
C          6.40056        2.30626        0.00000
C          7.59072        2.30626        0.00000
H          0.49248       -1.16706       -0.12396
H          0.34961        0.68425        0.01365
H          2.95078       -0.95657       -0.19183
H          4.79663        0.19285       -0.09158
H          4.46843        3.25422        0.04387
H          8.65592        2.30765        0.00010
