16
-1615.27
N          1.03509        0.02841        0.07869
C          2.48883        0.02182       -0.06316
C          3.09030        1.05928        0.91017
C          4.15798       -0.00577        1.25030
C          3.10960       -1.08109        0.84642
C          3.63879       -2.24174        0.15773
C          4.07595       -3.20597       -0.40675
H          0.58566       -0.77363       -0.36349
H          0.59075        0.85279       -0.32394
H          2.86555        0.07651       -1.09014
H          2.46624        1.33050        1.77102
H          3.47229        1.97487        0.45034
H          5.04435        0.04412        0.60567
H          4.48223       -0.02709        2.29444
H          2.47793       -1.36259        1.70192
H          4.46502       -4.06469       -0.90481
