18
-1790.94
C          1.02195       -0.01382       -0.00931
C          2.53824       -0.01940        0.08040
C          3.08841        1.16458        0.87050
C          4.43881        0.63983        1.24288
C          5.55306        1.37172        1.36598
C          4.35798       -0.85459        1.31600
N          3.02136       -1.20098        0.80912
H          0.66237       -0.87293       -0.58630
H          0.66752        0.89683       -0.50437
H          0.55778       -0.05792        0.98273
H          2.96160       -0.01763       -0.93307
H          2.50083        1.36020        1.77573
H          3.13379        2.07434        0.26355
H          6.50920        0.90842        1.58916
H          5.53399        2.45050        1.24711
H          5.13468       -1.31966        0.69899
H          4.45431       -1.20619        2.34885
H          3.08590       -1.99913        0.18034
