16
-1586.19
C         -1.49551        0.78606        0.15776
C         -1.34217       -0.71212       -0.12943
C          0.03061       -1.21529        0.19423
O          0.99766       -0.96276       -0.84468
C          1.15736       -0.23777        0.38003
C          0.87215        1.23032        0.33836
N         -0.37155        1.56760       -0.35973
H         -2.42221        1.13973       -0.30909
H         -1.60178        0.95672        1.23673
H         -1.56428       -0.91718       -1.18366
H         -2.08004       -1.26343        0.46405
H          0.05605       -2.18305        0.67043
H          1.99910       -0.49589        1.00568
H          0.82349        1.60653        1.36651
H          1.70634        1.74534       -0.15104
H         -0.55817        2.56201       -0.24483
