17
-1716.04
C          0.85106        0.09351        0.27605
C          2.18892        0.16717        0.28493
C          3.04026        1.37944        0.05043
C          2.35574        2.74120        0.05067
C          3.48847        3.64992        0.45774
C          4.19846        2.80382        1.49169
O          4.03652        1.43708        1.08936
H          0.35319       -0.85399        0.46290
H          0.21984        0.95389        0.08511
H          2.74925       -0.74676        0.47669
H          3.58413        1.24155       -0.89258
H          1.56466        2.79724        0.80861
H          1.92121        2.99935       -0.91943
H          4.14807        3.82993       -0.39919
H          3.15970        4.61612        0.84878
H          5.26294        3.04177        1.57019
H          3.74089        2.91792        2.48031
