14
-1451.03
O          2.79732        1.09164       -2.33965
C          2.21842        1.12315       -1.26393
N          2.82206        1.14939       -0.03442
C          4.26544        1.22378        0.10649
C          4.80654        2.64840       -0.03947
C          4.34543        3.52190        1.05433
C          3.96901        4.23885        1.94226
H          1.11875        1.13662       -1.18196
H          2.24832        1.30939        0.78388
H          4.72065        0.58285       -0.65713
H          4.51384        0.80891        1.08962
H          4.50320        3.07414       -1.00272
H          5.90214        2.61412       -0.03213
H          3.63737        4.88066        2.72521
