16
-1617.42
C          0.99389       -0.01615        0.16589
C          2.52000        0.00000        0.00000
N          3.11309       -0.70682        1.13686
C          2.89385       -0.77105       -1.24715
C          3.49629       -0.33009       -2.36312
C          3.00202        1.36117        0.00000
C          3.39930        2.48307        0.00000
H          0.49731        0.49085       -0.67139
H          0.68087        0.49856        1.08341
H          0.59914       -1.03896        0.21055
H          2.87398       -0.20437        1.98965
H          4.12657       -0.63849        1.05218
H          2.62792       -1.82837       -1.21712
H          3.79867        0.70378       -2.49293
H          3.70132       -1.01195       -3.18247
H          3.75527        3.48739       -0.00245
