15

C	1.390442	1.892823	-0.283217
N	2.582257	2.262116	-0.54451
N	3.565238	2.046694	0.326975
C	4.913743	2.094902	-0.187934
C	5.232863	3.45059	-0.788596
C	6.629024	3.556248	-1.321038
O	7.446931	2.675074	-1.270465
H	0.605326	2.125825	-1.007329
H	1.113526	1.359535	0.644104
H	3.393907	1.352738	1.056898
H	5.106063	1.308382	-0.942591
H	5.597704	1.892552	0.649912
H	5.084407	4.256551	-0.046476
H	4.525182	3.685566	-1.603232
H	6.882829	4.545854	-1.785352
