18
-1723.84
C          1.11187       -0.74421        0.02460
C          2.50337       -0.20711       -0.09501
C          2.91254        1.07467        0.00898
C          1.99806        2.25582        0.21020
N          2.24576        2.86394        1.51511
C          4.37990        1.41857       -0.13322
O          4.88743        1.92389        1.09268
H          1.11753       -1.62740        0.67104
H          0.74308       -1.04595       -0.95949
H          0.40733       -0.03284        0.46038
H          3.25666       -0.97688       -0.26728
H          0.94050        1.99393        0.12854
H          2.19087        2.99654       -0.57432
H          1.93467        2.20539        2.23261
H          1.63472        3.67530        1.61397
H          4.52005        2.17668       -0.91048
H          4.98374        0.54920       -0.41098
H          4.16189        2.45937        1.47988
