15
-1538.11
N          1.21156        0.14601        0.51845
C          2.31849       -0.10619       -0.06707
N          2.75819       -1.27873       -0.58539
C          4.13598       -1.27962       -1.03227
C          4.54492        0.16433       -0.88394
C          3.86261        1.28155       -1.63442
C          3.38093        0.90472       -0.25750
H          1.17694        1.13128        0.79396
H          2.26565       -2.13319       -0.36838
H          4.74411       -1.92391       -0.39026
H          4.21334       -1.61393       -2.07060
H          5.54071        0.31067       -0.49407
H          4.39319        2.22004       -1.74263
H          3.23278        1.03002       -2.48081
H          3.59577        1.56390        0.57338
