20
-1916.61
C          1.04985        0.10705       -0.09405
C          2.53988        0.05927       -0.04182
C          3.36832       -0.69011       -1.06218
C          2.76000       -1.43646       -2.20028
C          3.44040        0.82966       -1.00058
C          2.85330        1.65903       -2.11697
N          4.67072        1.41050       -0.42580
H          0.68262        0.89539        0.56970
H          0.63740       -0.84414        0.25515
H          0.64745        0.29872       -1.09041
H          2.86277       -0.03189        0.99187
H          4.22871       -1.23914       -0.68857
H          1.83639       -0.99180       -2.57794
H          2.52723       -2.46008       -1.88762
H          3.47102       -1.49341       -3.03078
H          1.96885        1.21659       -2.58011
H          3.59695        1.80152       -2.90930
H          2.56659        2.64721       -1.73978
H          5.04690        0.82093        0.31511
H          4.46476        2.30864        0.01057
