12
-1316.15
C          1.32342       -0.34273       -0.76429
C          2.53920       -0.15126       -0.23988
C          3.23146        1.11456       -0.30502
C          4.44944        1.30817        0.21978
C          5.09880        2.56872        0.13568
C          5.65196        3.63329        0.06693
H          0.83885       -1.31156       -0.69267
H          0.78140        0.44797       -1.27354
H          3.03586       -0.98060        0.25970
H          2.72471        1.93690       -0.80725
H          4.97788        0.50592        0.72612
H          6.14119        4.57676        0.00553
