11
-1301.28
C          0.91337        0.04972       -0.00356
C          2.11343        0.02225       -0.00206
C          3.53542       -0.02452        0.00077
C          4.37477        1.06312        0.00244
O          5.67332        0.65651        0.00614
C          5.65806       -0.70273        0.00680
C          4.36391       -1.17057        0.00311
H         -0.15157        0.06822       -0.00442
H          4.22159        2.13367        0.00164
H          6.62794       -1.18040        0.01006
H          4.05968       -2.20738        0.00271
