18

C	0.968058	0.020575	-0.010945
C	2.484905	0.051221	0.040866
C	3.150037	-1.027535	0.95891
N	3.968348	-0.230325	1.893549
C	4.553339	0.766578	0.938228
C	3.109397	1.265512	0.74376
C	2.995321	0.85805	2.226301
H	0.607523	-0.925172	-0.44591
H	0.569309	0.840579	-0.628847
H	0.52024	0.108469	0.991885
H	2.875629	-0.020213	-0.98921
H	3.790205	-1.732903	0.408272
H	2.407487	-1.615281	1.522035
H	5.090114	0.335032	0.076615
H	5.207415	1.472802	1.471572
H	2.852473	2.264875	0.359908
H	3.450611	1.580308	2.920653
H	2.027088	0.519499	2.628947
