17
-1630.89
C          1.77769       -0.62071       -0.05094
O          1.74067        0.76671        0.26092
C          3.02221        1.40258        0.14375
C          3.34418        2.01575       -1.18663
C          3.01045        2.89366       -0.01418
O          4.12684        0.82377        0.85525
C          4.01669        0.96600        2.26587
H          2.30693       -0.79834       -0.99185
H          0.75041       -0.97802       -0.15383
H          2.25897       -1.17364        0.76169
H          2.61148        1.92794       -1.97763
H          4.37378        1.98351       -1.52016
H          3.81395        3.46313        0.43419
H          2.04878        3.39131       -0.00821
H          4.77506        0.33331        2.73291
H          3.03234        0.64800        2.61969
H          4.20142        2.00433        2.55240
