12
-1265.45
O          2.72183       -1.16579       -0.42498
C          2.20219       -0.09172       -0.14084
C          2.96164        1.17991        0.13079
C          4.46594        0.98157        0.01011
C          5.18359        2.23720        0.27867
C          5.77386        3.26069        0.49719
H          1.10470       -0.00391       -0.06769
H          2.69373        1.51860        1.13802
H          2.61079        1.93534       -0.58142
H          4.71923        0.62260       -0.99466
H          4.80183        0.21002        0.71325
H          6.30267        4.16572        0.69002
