16

C	1.215619	-0.829758	0.40189
C	2.563527	-0.231326	0.042271
O	3.194632	-0.993031	-0.98279
C	2.481959	1.244819	-0.335964
C	3.83784	1.869146	-0.646165
O	4.441772	1.334115	-1.787338
H	0.770169	-0.320698	1.269704
H	1.323695	-1.89806	0.63928
H	0.509453	-0.730568	-0.440554
H	3.241739	-0.329452	0.9084
H	2.596524	-1.014539	-1.74028
H	2.002261	1.797992	0.48982
H	1.822797	1.356265	-1.217507
H	4.48718	1.769404	0.252313
H	3.712855	2.951551	-0.816795
H	4.408018	0.372162	-1.676896
