17
-1648.88
C         -1.70895        0.83291        0.51570
C         -1.15508       -0.24217       -0.37071
N         -0.39358       -1.37806        0.19358
C          0.98928       -1.32281       -0.32186
C          1.70074        0.04853       -0.12707
N          0.84942        1.14810        0.37462
C         -0.47218        1.11390       -0.28926
H         -2.62926        1.31458        0.20396
H         -1.62574        0.72199        1.58934
H         -1.69488       -0.46440       -1.28742
H         -0.34971       -1.28393        1.20762
H          1.57619       -2.11108        0.16165
H          0.96709       -1.56148       -1.39283
H          2.53155       -0.07684        0.57767
H          2.14564        0.35761       -1.08056
H          0.72376        1.01083        1.37671
H         -0.56831        1.76083       -1.15686
