19
-1839.08
C          1.91417       -0.53038       -1.29633
O          2.18327        0.06104       -0.03494
C          3.06452        1.20280       -0.05228
C          2.45532        2.53951       -0.53956
C          3.21229        3.25452        0.60318
C          4.54406        3.88433        0.22483
C          3.29129        1.88519        1.31695
H          1.24929       -1.38480       -1.14671
H          2.84415       -0.88082       -1.75420
H          1.42164        0.19040       -1.95553
H          4.01322        0.95823       -0.54925
H          1.36421        2.59020       -0.44353
H          2.72989        2.83653       -1.55594
H          2.59230        3.98364        1.13934
H          5.19121        3.18400       -0.31380
H          5.07838        4.21678        1.12087
H          4.38602        4.75835       -0.41506
H          4.24267        1.65341        1.80431
H          2.48083        1.71612        2.03563
