12
-1245.87
N          0.88810        0.06867        0.12410
C          2.23629        0.01322        0.06838
C          3.11207        1.07694        0.02327
O          2.66995        2.35199        0.01918
C          4.47430        0.68205       -0.02099
C          4.59887       -0.69053       -0.01610
S          3.07740       -1.47546        0.03913
H          0.43878        0.95770       -0.07843
H          0.34473       -0.75208       -0.11812
H          3.42342        2.96510        0.01182
H          5.32275        1.35202       -0.05663
H          5.50787       -1.27522       -0.04380
