15
-1586.43
C          0.92409       -0.00060       -0.17729
C          2.44791        0.00053       -0.06093
C          2.91922        1.25348        0.63399
C          3.63679        1.19718        1.76394
O          4.00779        0.02340        2.38342
C          3.63743       -1.16171        1.78556
C          2.91983       -1.23906        0.65695
H          0.57157       -0.89280       -0.70740
H          0.57288        0.87532       -0.73478
H          0.44237        0.01510        0.80786
H          2.87690       -0.00882       -1.07054
H          2.67118        2.21473        0.19592
H          4.00200        2.05786        2.30644
H          4.00323       -2.01210        2.34357
H          2.67247       -2.20827        0.23649
