17
-1752.35
C          1.79902       -0.28152        1.48806
C          2.24936        0.12075        0.09349
C          2.97913        1.43393        0.10937
C          4.30674        1.63646        0.00000
C          5.32953        0.53833       -0.09979
C          4.77607        2.96181        0.00000
C          5.17335        4.08371        0.00000
H          1.24217       -1.22335        1.44835
H          1.14563        0.47852        1.93013
H          2.65668       -0.42385        2.15450
H          1.37147        0.22301       -0.55543
H          2.85376       -0.67863       -0.34501
H          2.32708        2.30409        0.19924
H          4.93370       -0.44494        0.16841
H          6.16659        0.73271        0.58145
H          5.72598        0.48104       -1.11950
H          5.52763        5.08798        0.00010
