17

C	1.508613	-0.04898	-1.264629
C	2.375983	-0.344832	-0.051764
C	3.211865	0.850429	0.397599
N	4.11987	1.330396	-0.614266
C	3.964211	2.557193	-1.207204
N	4.926779	2.857541	-2.150971
O	3.076249	3.33437	-0.913364
H	0.909068	-0.924273	-1.557337
H	2.127698	0.23795	-2.128892
H	0.820925	0.787814	-1.066421
H	3.044507	-1.198637	-0.266076
H	1.747922	-0.660954	0.798801
H	3.772769	0.596341	1.314394
H	2.556899	1.699751	0.642625
H	4.945987	0.784352	-0.816628
H	5.372588	2.106224	-2.661319
H	4.708858	3.678943	-2.699919
