17

C	1.410772	-0.222936	0.159514
O	2.800256	-0.142552	0.141136
C	3.279159	1.157101	0.016075
C	4.777563	1.19424	-0.015308
C	5.526348	0.096082	0.114849
C	5.370032	2.561639	-0.228977
O	4.89829	3.181764	-1.401934
H	1.133336	-1.282674	0.246926
H	0.957149	0.183922	-0.76718
H	0.971153	0.326131	1.016956
H	2.925247	1.798185	0.856048
H	2.897934	1.646091	-0.905782
H	5.062081	-0.879814	0.269758
H	6.618591	0.152989	0.078165
H	6.47495	2.491393	-0.207648
H	5.076224	3.229527	0.599547
H	5.146925	2.620524	-2.144904
