16
-1565.57
C          0.98746       -0.01579        0.00502
C          2.52000        0.00000        0.00000
N          2.99292       -0.67463        1.21523
C          3.04878       -0.75969       -1.25045
O          4.47845       -0.89368       -1.23528
C          3.00202        1.36117        0.00000
C          3.39930        2.48307        0.00000
H          0.58390        0.47626       -0.88804
H          0.57987        0.51136        0.87662
H          0.59757       -1.04014        0.02293
H          2.89268       -0.05187        2.01398
H          3.99140       -0.86013        1.10379
H          2.77133       -0.24546       -2.17821
H          2.63323       -1.77290       -1.29292
H          4.84537        0.00769       -1.22565
H          3.75019        3.48978        0.00552
