13
-1417.3
C          1.70017       -0.61958        1.04624
C          2.44810       -0.09681        0.06495
C          3.15226        1.22561        0.14542
C          4.60279        1.02047        0.04605
C          5.79117        0.86466       -0.03270
C          7.21733        0.67364       -0.12467
O          7.96888        1.62183       -0.29882
H          1.21050       -1.58048        0.91910
H          1.56076       -0.10860        1.99409
H          2.54956       -0.64861       -0.86778
H          2.91262        1.74428        1.08059
H          2.80504        1.86402       -0.67438
H          7.56668       -0.36612       -0.02868
