6
-785.04
N          0.82332        0.00000        0.00000
C          1.98303        0.00000        0.00000
C          3.51408        0.00000        0.00000
C          4.71410        0.00000        0.00000
C          6.24515        0.00000        0.00000
N          7.40486        0.00000        0.00000
