16
-1480.93
C          1.23311        0.03193       -0.40002
N          2.68677        0.09802       -0.47174
C          3.20119        1.12935        0.43124
C          4.69886        1.10763        0.35468
C          5.43138        1.94277       -0.66373
N          5.45822        2.29492        0.75216
H          0.87187       -0.75963       -1.06371
H          0.77300        0.97348       -0.71674
H          0.89540       -0.20906        0.61346
H          2.96025        0.33177       -1.42568
H          2.90027        0.91695        1.46385
H          2.80537        2.11512        0.15529
H          5.11770        0.15154        0.64854
H          4.86478        2.60776       -1.30328
H          6.34983        1.55519       -1.08762
H          6.34501        2.02244        1.18022
