15

O	3.106515	-0.970804	-0.556291
C	2.398501	0.038425	0.111657
C	3.197756	1.317962	-0.007313
C	3.350785	1.857611	-1.435877
C	3.243659	3.335205	-1.171384
N	2.794608	3.607071	-0.005488
N	2.525898	2.438684	0.653778
H	2.590105	-1.780872	-0.527469
H	2.249011	-0.198274	1.185632
H	1.394723	0.216723	-0.322923
H	4.203371	1.138951	0.426445
H	2.518545	1.519146	-2.082919
H	4.284226	1.546631	-1.924976
H	3.452717	4.136202	-1.884093
H	2.668269	2.535959	1.653419
