21
-1988.56
C          2.20963        0.75653        0.10026
C          3.43638        1.47002        0.63811
O          4.55142        1.08811       -0.16027
C          5.82638        1.65109        0.18114
C          6.27002        1.23059        1.58671
C          6.80864        1.06452       -0.84279
C          5.82420        3.17765        0.04382
H          1.32127        1.01655        0.68230
H          2.34952       -0.32861        0.13399
H          2.03694        1.02383       -0.94711
H          3.59175        1.17811        1.68051
H          3.27543        2.55030        0.58162
H          5.65363        1.69983        2.36158
H          7.31049        1.51494        1.78048
H          6.17457        0.14658        1.71848
H          6.50695        1.32338       -1.86444
H          6.81766       -0.03049       -0.79083
H          7.83001        1.42624       -0.68220
H          5.41005        3.48215       -0.92429
H          6.83548        3.58982        0.13548
H          5.20746        3.65111        0.81585
