18
-1624.59
C          0.89172       -0.34468        0.07577
N          2.31356       -0.02814       -0.08082
C          2.90951       -0.92746       -1.07370
C          2.51907        1.37568       -0.49350
C          2.13009        2.40488        0.58871
N          2.46246        3.77232        0.17750
H          0.44850        0.22272        0.89974
H          0.75953       -1.40162        0.33413
H          0.31941       -0.14192       -0.83653
H          2.79862       -1.97227       -0.76280
H          3.98572       -0.74326       -1.16420
H          2.45372       -0.81117       -2.06362
H          1.97435        1.59016       -1.42296
H          3.58619        1.51962       -0.71148
H          2.65224        2.17841        1.52525
H          1.05481        2.36625        0.78742
H          3.47225        3.84858        0.05735
H          2.22158        4.41074        0.93504
