13
-1349.66
C          1.09609        0.00142       -0.12724
N          2.51594        0.02007        0.11673
N          3.21638       -1.15409        0.27964
C          4.44509       -0.80649        0.48341
C          4.67883        0.66912        0.47531
C          3.29277        1.17233        0.21628
O          2.95281        2.33887        0.11995
H          0.71347        1.01833       -0.24687
H          0.59903       -0.47692        0.72102
H          0.90155       -0.57082       -1.03833
H          5.26921       -1.51305        0.65160
H          5.04943        0.99799        1.44730
H          5.36082        0.93914       -0.33231
