13

C	1.007048	0.050378	0.177777
C	2.486684	0.19522	0.195098
C	3.176514	1.091155	-0.512876
S	4.93139	1.121231	-0.450846
O	5.212255	2.577892	0.216928
O	5.401474	0.120326	0.493791
O	5.43328	1.214454	-1.80059
H	0.727649	-0.962254	-0.156758
H	0.520555	0.783552	-0.480072
H	0.598968	0.162751	1.195615
H	3.059576	-0.490658	0.83186
H	2.743154	1.825419	-1.198227
H	5.308394	2.444334	1.17217
