17
-1752.81
C          0.91385       -0.15392       -0.15069
C          2.33119        0.32698        0.10862
C          3.57945       -0.45131       -0.52464
C          4.33082        0.90629       -0.16430
C          2.98756        1.45212       -0.82430
C          3.00494        0.88361       -2.20701
C          3.39859       -0.38413       -2.00787
H          0.19206        0.59701        0.18692
H          0.72008       -1.07768        0.40401
H          0.71531       -0.35273       -1.20769
H          2.42205        0.52287        1.18861
H          3.91937       -1.38553       -0.08206
H          4.48889        1.12261        0.89843
H          5.26204        1.11115       -0.70344
H          2.71196        2.49714       -0.69223
H          2.75762        1.37889       -3.13095
H          3.54913       -1.16925       -2.73029
