17
-1723.27
C          1.29156       -0.56920       -0.03692
C          2.78609       -0.30300       -0.03135
C          3.11470        1.18010        0.01523
O          2.24547        2.04753        0.11142
C          4.59048        1.54635       -0.00298
C          5.08997        1.68358        1.40324
C          6.06149        0.93308        1.93806
H          1.09617       -1.64497       -0.07996
H          0.81172       -0.09909       -0.90166
H          0.81787       -0.17146        0.86658
H          3.23304       -0.72330       -0.93838
H          3.24115       -0.78473        0.84015
H          4.70435        2.49608       -0.53636
H          5.14352        0.79110       -0.57131
H          4.62113        2.45616        2.01194
H          6.56670        0.15536        1.37335
H          6.37871        1.08987        2.96549
