15

C	0.919952	-0.10692	0.085179
N	2.346284	0.053413	0.036432
C	2.813537	1.24112	-0.000483
N	2.098604	2.409884	-0.038264
C	4.31374	1.389073	-0.110564
C	4.982466	2.474133	0.685006
O	4.450185	3.474179	1.09949
H	0.660483	-1.172546	0.164338
H	0.417568	0.286729	-0.821967
H	0.453488	0.402738	0.955511
H	1.118512	2.36033	0.208221
H	2.588404	3.234972	0.297111
H	4.58172	1.596585	-1.166332
H	4.764456	0.414034	0.123363
H	6.077703	2.314317	0.855079
