16

C	0.586665	0.027948	-0.174559
C	2.070152	0.049586	-0.329335
C	2.902166	0.900298	0.278726
C	4.389017	0.910956	0.114123
C	5.111205	0.604537	1.435679
C	6.564142	0.636975	1.31561
N	7.715441	0.667882	1.200761
H	0.24006	-0.951353	0.195989
H	0.084364	0.186836	-1.14338
H	0.235601	0.802276	0.523374
H	2.499129	-0.700105	-1.008905
H	2.483868	1.653046	0.961971
H	4.724349	1.899209	-0.245223
H	4.695801	0.177691	-0.647896
H	4.814005	-0.390243	1.805895
H	4.814396	1.3278	2.21347
