21
-1934.31
C          0.96295       -0.05241        0.15893
C          2.45165       -0.11100       -0.16895
C          3.22344        1.23403       -0.07006
C          2.62822        2.28993       -1.01386
N          3.16573        1.75618        1.31305
C          4.72055        1.00323       -0.45919
N          5.46012        0.22120        0.54327
H          0.52530       -1.05221        0.06583
H          0.42296        0.60495       -0.52811
H          0.78604        0.28857        1.18295
H          2.55687       -0.50915       -1.18673
H          2.91069       -0.85393        0.49612
H          2.61807        1.92798       -2.04799
H          3.21374        3.21677       -0.99352
H          1.60098        2.55435       -0.74147
H          3.43772        0.99646        1.93925
H          2.20117        1.97799        1.55419
H          5.23028        1.96820       -0.57269
H          4.78298        0.49050       -1.42592
H          5.45986        0.77238        1.40347
H          6.43639        0.16628        0.25641
