16
-1554.42
C          0.94646       -0.11944       -0.10225
C          2.45949        0.00292        0.10360
C          2.86863       -0.74657        1.37472
O          3.10684       -0.65538       -0.98726
C          2.86816        1.45874        0.05320
C          3.51060        2.16217        0.99675
H          0.63547        0.33986       -1.04830
H          0.38740        0.35556        0.71120
H          0.64523       -1.17187       -0.16152
H          2.40028       -0.32261        2.26934
H          3.95683       -0.73538        1.50831
H          2.58415       -1.80364        1.30956
H          2.91284       -0.15489       -1.79640
H          2.60188        1.99006       -0.85974
H          3.82309        1.72642        1.93978
H          3.74931        3.20972        0.83694
