13

N	3.533222	-0.571329	-2.876557
C	3.681555	-0.570656	-1.728823
C	3.898858	-0.521422	-0.286636
C	4.532983	0.797428	0.165278
C	5.920031	1.045389	-0.434399
C	6.889461	0.028315	-0.039686
N	7.625098	-0.80108	0.292517
H	4.539007	-1.374326	-0.003102
H	2.930767	-0.670796	0.216539
H	4.600221	0.790905	1.263913
H	3.879329	1.637746	-0.114633
H	6.300706	2.02902	-0.117433
H	5.866201	1.065444	-1.536498
