17

C	0.746801	0.599216	-0.760731
N	1.973124	0.770238	-0.042364
C	2.799513	1.637899	-0.460194
N	3.991788	1.856155	0.176167
C	5.00014	2.750927	-0.156708
C	4.769788	3.615786	-1.359068
C	6.125858	2.829815	0.576101
H	0.65373	-0.441488	-1.115998
H	0.635709	1.267417	-1.640729
H	-0.115216	0.773296	-0.093924
H	2.622303	2.269433	-1.350236
H	4.138313	1.267954	0.989866
H	4.631385	3.012832	-2.27103
H	5.629087	4.279192	-1.515946
H	3.870698	4.241546	-1.238705
H	6.284307	2.196742	1.452909
H	6.912202	3.535109	0.308819
