10
-1179.84
C          0.97450       -0.06709       -0.00153
C          2.17296        0.00378        0.00056
C          3.58217        0.08651        0.00301
C          4.46424        1.13659        0.00076
N          5.75222        0.65655        0.00512
C          5.58902       -0.64917        0.00975
O          4.29432       -1.07486        0.00883
H         -0.08836       -0.13537       -0.00336
H          4.24909        2.19550       -0.00368
H          6.34977       -1.41725        0.01417
