13
-1323.05
N          1.02188       -0.07343       -0.09784
C          2.48303       -0.01013       -0.02156
C          3.28712       -0.71065       -1.07590
C          3.24971        0.79444       -1.04357
C          4.42577        1.50220       -0.62739
C          5.41030        2.09689       -0.28439
H          0.60438        0.69381        0.42912
H          0.67765       -0.93077        0.33401
H          2.88343       -0.03862        0.99026
H          2.76187       -1.20561       -1.88454
H          4.19379       -1.21747       -0.76662
H          2.66877        1.27905       -1.82307
H          6.28580        2.62515        0.01717
