18
-1710.57
N          1.87775       -1.28554       -0.63530
C          1.61604        0.04445       -0.07373
C          2.88163        0.90874       -0.08146
O          3.85950        0.30381        0.77087
C          5.05754        1.07209        0.81478
C          6.02782        0.33493        1.68038
C          6.59818        0.83155        2.78605
H          1.11575       -1.91153       -0.37992
H          2.71212       -1.65080       -0.16726
H          1.26594       -0.07896        0.95757
H          0.82409        0.52951       -0.65287
H          2.64019        1.90838        0.29565
H          3.27894        0.99740       -1.09899
H          4.84224        2.07072        1.21217
H          5.47464        1.17070       -0.19396
H          6.26877       -0.67876        1.36971
H          6.38102        1.83399        3.14049
H          7.29106        0.23159        3.36777
