13
-1272.45
C          0.94509       -0.00354       -0.06798
C          2.43514        0.06269       -0.15263
C          3.15211        1.11736        0.25853
C          4.62391        1.10489        0.14049
N          5.34080        2.10860        0.52905
O          6.69077        1.81783        0.29737
H          0.64447       -0.85397        0.55136
H          0.52070       -0.13819       -1.06746
H          0.51450        0.90442        0.36642
H          2.92856       -0.81028       -0.57603
H          2.70378        2.00683        0.68576
H          5.07920        0.19829       -0.29480
H          7.13509        2.62405        0.61946
