20

N	1.502526	2.175752	2.050218
C	2.892325	2.120836	1.642308
C	3.004059	1.841798	0.150823
C	4.432722	1.74107	-0.373085
C	5.237222	3.011646	-0.235756
C	6.057004	3.279607	0.995089
C	6.734839	2.970024	-0.307481
H	1.424971	2.417789	3.0352
H	1.067608	1.259991	1.94778
H	3.504129	1.368436	2.19065
H	3.354956	3.09763	1.861741
H	2.453375	2.630666	-0.38945
H	2.473699	0.897677	-0.073308
H	4.402178	1.451126	-1.437516
H	4.964202	0.922597	0.146245
H	4.762599	3.890093	-0.689677
H	6.069706	2.510748	1.774002
H	6.107891	4.302192	1.37942
H	7.25783	3.77701	-0.827657
H	7.208389	1.98928	-0.416487
