21
-1926.53
C          1.34513       -0.23387       -0.11536
N          2.75515        0.12822       -0.11014
C          3.04734        1.58236       -0.04062
C          2.52582        2.31086       -1.29608
C          2.44406        2.23286        1.21658
C          4.60357        1.74847        0.03409
N          5.32648        1.00373       -1.01048
H          1.26111       -1.32456       -0.16666
H          0.81474        0.17073       -0.98193
H          0.83587        0.07662        0.80102
H          3.17758       -0.21485       -0.97551
H          2.88096        1.83655       -2.21803
H          2.86442        3.35352       -1.31107
H          1.43108        2.33012       -1.33100
H          2.74503        1.69738        2.12456
H          1.34944        2.25487        1.18449
H          2.78269        3.27072        1.31941
H          4.96950        1.40084        1.00863
H          4.87039        2.80894       -0.04737
H          5.21398        0.01012       -0.80320
H          6.32388        1.18747       -0.90657
