21
-2046.1
C          3.32178       -1.37227        0.60940
C          2.58519       -0.09203        1.01967
C          2.35322       -0.09649        2.53439
C          3.30683        1.17724        0.48544
C          2.48202        2.44670        0.72235
C          4.69535        1.37235        1.05287
C          5.81404        1.36815        0.31705
H          3.47663       -1.40302       -0.47450
H          2.73774       -2.25752        0.88502
H          4.29882       -1.45461        1.09749
H          1.59624       -0.12854        0.54306
H          3.29555       -0.10063        3.09195
H          1.79223       -0.98982        2.83176
H          1.76837        0.77148        2.85399
H          3.38741        1.06045       -0.60509
H          2.41266        2.70271        1.78509
H          1.46512        2.32847        0.33280
H          2.93434        3.30299        0.20879
H          4.77932        1.53781        2.12599
H          5.79116        1.21537       -0.75741
H          6.78413        1.51997        0.78086
