13

C	1.389513	0.40519	-1.062564
C	2.767866	0.305207	-0.461344
O	3.49031	-0.654906	-0.583691
N	3.124563	1.401316	0.317781
C	4.458041	1.902987	0.413206
C	3.355458	2.738656	-0.154934
H	1.3313	1.259352	-1.755694
H	0.643193	0.575646	-0.272845
H	1.162251	-0.521101	-1.602731
H	5.19669	1.483371	-0.28001
H	4.829815	2.105387	1.423052
H	2.915452	3.552676	0.43153
H	3.363738	2.90662	-1.239466
