14
-1466.42
N          0.08482        1.21190        0.44091
C          1.30052        0.57832        0.49436
C          2.33934        0.76744       -0.32740
C          3.59250       -0.00643       -0.12941
O          3.71880       -0.86016        0.73954
C          4.68214        0.33464       -1.08416
C          5.85924       -0.30084       -1.02462
H         -0.68318        0.66023        0.81954
H         -0.13894        1.64156       -0.45263
H          1.36844       -0.13361        1.31854
H          2.29201        1.48259       -1.13693
H          4.50467        1.10424       -1.82481
H          6.05049       -1.07456       -0.28504
H          6.65953       -0.05972       -1.71568
