15
-1596.86
O          1.57044        0.04188        1.36959
C          2.40694        0.01238        0.47470
C          2.97096       -1.26234       -0.12874
C          3.92404       -0.78818       -1.19180
C          5.18962       -0.05026       -0.83877
C          3.94674        0.71085       -1.21860
C          3.00804        1.24939       -0.17345
H          2.15646       -1.84237       -0.56867
H          3.49066       -1.83955        0.63892
H          3.87755       -1.34358       -2.11819
H          5.51850       -0.03717        0.19450
H          6.00503       -0.07511       -1.55409
H          3.91531        1.23463       -2.16362
H          3.54498        1.83934        0.57481
H          2.20944        1.83862       -0.63403
