17
-1651.55
C          2.58549       -0.47258       -1.76251
C          3.10904       -0.41589       -0.33561
C          3.72841        0.93694        0.02373
O          4.03680        0.90274        1.42009
C          4.36896        2.18640        1.94162
C          4.99537        1.15563       -0.78830
O          5.16684        2.11842       -1.53207
H          2.11436       -1.44264       -1.95242
H          3.39274       -0.34597       -2.49093
H          1.83722        0.30716       -1.93767
H          3.84169       -1.21883       -0.18456
H          2.28487       -0.63004        0.35643
H          3.01286        1.74233       -0.18201
H          4.48565        2.09287        3.02424
H          3.57235        2.90766        1.73848
H          5.31633        2.53813        1.52313
H          5.78118        0.39067       -0.66149
