13
-1270.06
C          0.97227       -0.00851       -0.03979
C          2.49437        0.00282        0.00152
C          3.08914       -0.75236       -1.17886
C          2.98260        1.43351       -0.02403
O          3.64165        1.93665        0.88109
H          0.55658        0.54861        0.80703
H          0.58865       -1.03267        0.00636
H          0.59306        0.45761       -0.95619
H          2.83550       -0.45737        0.93667
H          2.78025       -0.31135       -2.13312
H          2.77460       -1.80062       -1.16938
H          4.18373       -0.72555       -1.14485
H          2.71167        2.02148       -0.91857
