13
-1318.65
N          1.72503       -0.79265        1.00174
C          2.37748       -0.21226       -0.04751
O          2.28764       -0.68329       -1.17702
C          3.19561        1.02519        0.29143
C          4.64981        0.76547        0.02865
C          5.61670        0.84584        0.95191
H          1.94315       -0.56843        1.96215
H          1.23731       -1.65840        0.81086
H          3.02385        1.31926        1.33308
H          2.84101        1.84684       -0.33976
H          4.91448        0.49382       -0.99366
H          5.40804        1.11424        1.98250
H          6.65057        0.64388        0.68697
