19
-1768.66
C          1.50900       -0.00029        1.68473
C          2.83508       -0.04614        0.94138
N          3.56284        1.20629        1.14557
C          4.83968        1.16217        0.41713
C          5.66143        2.43234        0.73097
N          6.85109        1.56571        0.94322
C          5.93284        0.43580        1.23269
H          0.95521       -0.93063        1.52394
H          0.88570        0.82862        1.33269
H          1.66204        0.11827        2.76263
H          2.63939       -0.20181       -0.12589
H          3.41887       -0.89860        1.30722
H          3.65801        1.39146        2.14480
H          4.79069        0.90885       -0.64794
H          5.37857        2.98904        1.63298
H          5.76192        3.14297       -0.09516
H          7.39594        1.42855        0.09122
H          6.25749       -0.52689        0.82584
H          5.73981        0.31020        2.30512
