14
-1493.62
C          1.00000        0.00000        0.00000
C          2.19016        0.00000        0.00000
C          3.59616        0.00000        0.00000
C          4.35335       -1.09624       -0.06524
C          5.79188       -0.73303       -0.05757
N          5.83935        0.73903       -0.17376
C          4.45531        1.21471        0.05828
H         -0.06511       -0.00262        0.00117
H          3.98936       -2.11207       -0.10634
H          6.26565       -1.05061        0.87563
H          6.32172       -1.19599       -0.89557
H          6.08144        0.96389       -1.13892
H          4.17832        1.94788       -0.70692
H          4.39199        1.69195        1.04192
