11

O	1.047236	-0.21481	0.144145
N	2.392412	-0.174295	0.098142
C	2.860962	1.01453	-0.087672
C	2.075122	2.240316	-0.239276
C	2.61422	3.449207	-0.437376
C	4.298599	1.090518	-0.142769
N	5.44928	1.212131	-0.195543
H	0.851755	-1.147791	0.289118
H	0.993462	2.105561	-0.178605
H	3.697464	3.594324	-0.499844
H	1.982249	4.3335	-0.54423
