11

C	0.855783	0.545683	0.359274
C	2.172069	0.504249	0.102521
O	2.935082	-0.622433	-0.14953
C	2.463842	-1.879022	-0.165313
O	1.341452	-2.236432	0.026936
C	2.991712	1.676457	0.05354
C	3.680938	2.672441	0.012831
H	0.406513	1.523173	0.53775
H	0.241704	-0.3504	0.394412
H	3.316078	-2.55159	-0.393703
H	4.288438	3.558346	-0.024159
