19
-1836.94
C          1.12742       -0.02556        1.31271
C          2.26442       -0.01278        0.30647
C          2.74144        1.40230        0.00735
O          3.79288        1.32973       -0.95306
C          4.30706        2.62457       -1.31715
C          5.61857        3.00997       -0.69493
C          5.56609        2.59445       -2.13584
H          0.80781       -1.05320        1.51105
H          0.26424        0.53157        0.93538
H          1.43826        0.42296        2.26141
H          1.94277       -0.49688       -0.62377
H          3.10248       -0.61169        0.68334
H          3.11464        1.88186        0.91911
H          1.91965        2.00158       -0.40047
H          3.59904        3.41461       -1.55056
H          6.06922        2.32452        0.01304
H          5.78620        4.05740       -0.47372
H          5.69326        3.35723       -2.89439
H          5.97312        1.62583       -2.40284
