17

C	1.181775	-0.280141	-0.462329
C	2.568926	-0.03887	0.068705
C	3.752256	-0.530798	-0.700015
N	3.481391	0.870199	-0.587158
C	3.178129	1.703459	-1.668545
C	2.277094	2.849446	-1.31468
N	3.667433	1.601711	-2.839883
H	0.46766	0.463669	-0.076817
H	0.824469	-1.273652	-0.150625
H	1.161162	-0.236233	-1.562362
H	2.645838	-0.029575	1.164566
H	3.5425	-1.018922	-1.662808
H	4.643796	-0.903181	-0.182685
H	2.707679	3.422926	-0.47972
H	1.288482	2.491567	-0.988908
H	2.155312	3.498698	-2.189449
H	4.269347	0.775048	-2.907188
