14
-1461.74
C          0.87080        0.14883       -0.04400
C          2.37162        0.03188       -0.06616
C          2.91111       -1.37201       -0.14391
O          2.55531       -1.93422       -1.39724
C          3.13902        1.13799        0.00000
C          4.54502        1.13799        0.00000
N          5.69603        1.13799        0.00000
H          0.53637        1.18448        0.08617
H          0.45588       -0.43657        0.78435
H          0.44019       -0.22034       -0.98129
H          2.50169       -1.99399        0.65993
H          4.00037       -1.41690       -0.06120
H          1.63255       -2.22975       -1.33373
H          2.67361        2.11699        0.05559
