14
-1454.24
C          2.30423        1.87473       -0.73593
C          3.10839        2.83382       -1.20765
O          4.43680        3.03955       -0.97006
C          5.09462        2.12246       -0.09205
C          6.55717        2.53375        0.00762
C          7.28950        1.62919        0.89526
N          7.86152        0.90689        1.60008
H          1.25852        1.85472       -1.02865
H          2.63740        1.09456       -0.06289
H          2.74290        3.60188       -1.88237
H          5.02027        1.10296       -0.49196
H          4.62697        2.15700        0.90027
H          6.62717        3.56554        0.37147
H          7.00881        2.53632       -0.99144
