8
-927.78
O          0.94660        0.04163        0.00000
C          2.16802        0.01185        0.00000
C          2.93878        1.22907        0.00000
C          3.57475        2.24773        0.00000
C          4.32994        3.47466        0.00000
O          3.76690        4.55898        0.00000
H          2.74991       -0.92313        0.00000
H          5.42547        3.36239        0.00000
