16

O	1.339281	0.584817	2.526614
C	2.213402	0.959474	1.783058
N	3.492094	0.50159	1.782268
C	4.533638	0.93654	0.90567
C	5.873703	1.433069	1.489427
C	6.581412	0.768515	0.293078
C	5.326499	-0.100621	0.082471
H	2.053282	1.742471	0.998201
H	3.702379	-0.212767	2.47326
H	4.104594	1.702234	0.237918
H	6.098664	0.907957	2.431812
H	5.998094	2.513853	1.655089
H	6.731197	1.476253	-0.536803
H	7.533712	0.254435	0.484291
H	4.989406	-0.316095	-0.942402
H	5.398084	-1.051945	0.633728
