17
-1778.88
C          1.42540        0.28497        0.65039
C          2.66959       -0.10297       -0.08375
C          3.40257        0.94482       -0.89689
C          4.02733        0.42071        0.36623
C          4.91556       -0.74885        0.31150
C          4.30600       -1.87187       -0.10440
C          2.85403       -1.58564       -0.40208
H          1.41337        1.35169        0.89711
H          1.33907       -0.27604        1.58597
H          0.54490        0.07035        0.03753
H          3.03268        1.96441       -0.88715
H          3.83043        0.65597       -1.85161
H          4.08204        1.05251        1.24315
H          5.96182       -0.69065        0.58210
H          4.77323       -2.83768       -0.21877
H          2.62305       -1.78732       -1.45284
H          2.21648       -2.21167        0.23089
