14

C	1.032915	0.05844	0.030426
C	2.552524	-0.012729	-0.021392
C	3.076705	-1.202457	-0.866855
N	3.411725	-0.660498	-2.178992
C	3.417499	0.605699	-2.033339
N	3.134902	1.096712	-0.775653
H	0.687388	0.978201	0.529615
H	0.623098	-0.797349	0.589037
H	0.609377	0.036186	-0.986517
H	2.959767	-0.035123	1.002637
H	2.335604	-2.015215	-0.94791
H	3.984969	-1.642145	-0.417221
H	3.668548	1.304887	-2.840079
H	2.727299	2.020471	-0.685697
