18
-1782.21
C         -1.22371       -0.00117        0.96732
C         -0.61716       -1.02515       -0.02002
C          0.87924       -1.27004        0.20632
C          1.68149       -0.00070       -0.09699
C          0.88009        1.26830        0.20987
C         -0.61654        1.02498       -0.01703
N         -0.85308        0.00126       -1.09476
H         -0.83763       -0.00266        1.99001
H         -2.32025       -0.00101        1.00379
H         -1.19185       -1.94991       -0.13108
H          1.04803       -1.58334        1.24334
H          1.23419       -2.08557       -0.43419
H          1.92671        0.00077       -1.16806
H          2.64057       -0.00168        0.43224
H          1.23554        2.08551       -0.42827
H          1.04886        1.57850        1.24776
H         -1.19065        1.95044       -0.12584
H         -1.81382        0.00222       -1.44030
