15
-1451.52
C          1.48665       -0.47810       -0.95465
N          2.82692       -0.31892       -0.39724
N          3.24809        0.95906       -0.25976
C          4.52329        1.12886       -0.05923
C          5.59427        0.07214        0.00851
C          4.98635        2.56330        0.06656
O          6.15889        2.83662        0.26903
H          1.24891       -1.54207       -1.04910
H          1.42771       -0.03020       -1.95220
H          0.73476       -0.01096       -0.31076
H          2.85343       -0.81111        0.50049
H          5.18453       -0.93064        0.13777
H          6.25827        0.27411        0.85326
H          6.17573        0.09905       -0.91695
H          4.18791        3.31430       -0.03819
