14

C	0.899785	0.036452	0.223516
C	2.388563	0.018683	-0.030827
N	3.190917	0.940689	0.77849
C	4.05885	-0.001269	1.239509
O	5.096211	0.038253	1.846247
C	3.232856	-1.125229	0.587772
O	3.919432	-1.924928	-0.315848
H	0.407081	-0.777298	-0.32959
H	0.449336	0.985192	-0.107812
H	0.684531	-0.087022	1.296166
H	2.61756	0.098844	-1.107623
H	3.234217	1.954989	0.802181
H	2.655309	-1.711144	1.331233
H	4.771992	-2.137571	0.083656
