16

C	1.439119	-0.243003	-0.324063
O	2.821809	-0.053691	-0.344967
C	3.234246	1.138285	0.244504
C	4.754388	1.227056	0.098761
C	5.194796	1.234375	-1.365093
C	5.25077	2.3987	0.820266
N	5.634927	3.330487	1.389458
H	1.224356	-1.206851	-0.805669
H	0.903455	0.554118	-0.876425
H	1.039479	-0.269949	0.708716
H	2.955505	1.175362	1.317356
H	2.762319	2.016566	-0.244659
H	5.17726	0.338392	0.599131
H	4.805647	2.124137	-1.882892
H	4.794729	0.340156	-1.860632
H	6.290306	1.235251	-1.451762
