20

C	1.181773	0.156342	0.224644
C	2.652534	-0.040091	-0.129779
C	2.818295	-0.787294	-1.449796
C	3.38852	1.281071	-0.164388
C	3.85082	1.941174	1.109249
C	4.857963	1.374789	0.159145
N	5.77572	2.244084	-0.51329
H	1.07224	0.68099	1.186405
H	0.650475	-0.805649	0.29671
H	0.67325	0.761931	-0.544172
H	3.116255	-0.650428	0.668393
H	2.379538	-0.210649	-2.281245
H	2.317594	-1.767549	-1.425681
H	3.881344	-0.953468	-1.683581
H	3.045744	1.96769	-0.950996
H	3.675021	1.421025	2.055793
H	3.778069	3.031004	1.185537
H	5.324184	0.433043	0.477065
H	5.370282	3.169485	-0.633462
H	5.973417	1.892219	-1.448674
