13
-1390.3
C          1.00604       -0.07779        0.00633
N          2.45919       -0.04824       -0.00545
C          3.02523        1.09339       -0.00545
C          2.47518        2.46266        0.00539
C          3.50049        3.31463       -0.00041
C          4.66206        2.44159       -0.01422
N          4.39230        1.18200       -0.01682
H          0.66954       -1.11931       -0.00028
H          0.58592        0.40663       -0.88156
H          0.60134        0.39063        0.90978
H          1.42684        2.69571        0.01580
H          3.50529        4.38822        0.00391
H          5.67215        2.87404       -0.02142
