15
-1417.75
C          3.69846       -0.94655       -1.58379
S          2.98723       -0.38834       -0.05202
O          1.54478       -0.43417       -0.21017
O          3.62669       -1.11742        1.02871
C          3.46192        1.33991        0.05016
C          4.95711        1.47408        0.07967
C          5.66859        2.19652       -0.79605
H          4.78646       -0.91691       -1.51113
H          3.34284       -0.30448       -2.39164
H          3.36915       -1.97399       -1.75356
H          3.02922        1.73455        0.97411
H          3.00819        1.85585       -0.80116
H          5.47866        0.95704        0.88608
H          5.20138        2.74616       -1.60833
H          6.75052        2.26229       -0.70960
