18
-1704.23
C          0.94850        0.80086        1.07178
C          2.45403        0.64287        1.13008
O          3.03753        1.46655        0.12607
C          4.48121        1.43912        0.05395
C          5.13681        2.42849       -0.93298
N          6.20044        2.68825        0.06844
C          5.26633        2.23170        1.12374
H          0.46127        0.17647        1.82537
H          0.56981        0.52301        0.08306
H          0.66450        1.84464        1.23996
H          2.73153       -0.40103        0.94869
H          2.82702        0.94515        2.11442
H          4.85093        0.41307       -0.08173
H          4.53054        3.31160       -1.16585
H          5.49390        1.99188       -1.87044
H          7.01228        2.08028       -0.04385
H          5.72937        1.62886        1.90986
H          4.70318        3.04703        1.59213
