17

C	2.244833	-0.566129	-1.460414
C	2.602241	0.103681	-0.152948
O	3.342531	-0.794606	0.628646
C	3.422466	1.367693	-0.34793
C	2.673274	2.665461	-0.67146
C	3.120874	3.093977	0.730981
O	3.839965	1.874761	0.92966
H	1.646171	0.100548	-2.099762
H	1.664861	-1.479925	-1.268521
H	3.159811	-0.852461	-2.00153
H	1.666373	0.398711	0.373364
H	3.677384	-0.27941	1.375545
H	4.296753	1.141016	-0.98642
H	1.588835	2.554163	-0.818799
H	3.09231	3.254531	-1.497379
H	3.78459	3.974868	0.774511
H	2.311988	3.22869	1.470996
