16

C	2.81442	-1.088727	-0.526199
N	2.40205	0.120691	0.147671
C	3.396502	1.136586	0.184869
C	3.501167	2.047837	-0.994014
C	2.910467	2.564037	0.300367
C	3.62212	3.517486	1.106272
C	4.221346	4.323837	1.785402
H	1.992825	-1.821802	-0.517821
H	3.713035	-1.576159	-0.091329
H	3.044158	-0.865265	-1.580411
H	2.069596	-0.081171	1.087137
H	4.344935	0.923379	0.706808
H	2.796654	1.879505	-1.812167
H	4.487131	2.418961	-1.280552
H	1.819423	2.663578	0.306603
H	4.7509	5.039516	2.386185
