19
-1783.89
C          3.27693       -0.89092       -1.03604
C          2.70346       -0.27048        0.23148
C          3.24135        1.14433        0.51858
N          2.54114        1.69868        1.68278
C          4.74123        1.14620        0.73581
C          5.43402        1.99258        1.77970
N          5.30976        0.54580        1.94983
H          2.79614       -1.85642       -1.23066
H          4.35207       -1.07211       -0.94501
H          3.10451       -0.24588       -1.90142
H          2.91397       -0.93987        1.07654
H          1.61250       -0.23158        0.12347
H          3.02078        1.79157       -0.33869
H          2.86141        1.17162        2.49967
H          1.54389        1.51562        1.60461
H          5.28179        0.97620       -0.18936
H          4.84754        2.60507        2.45229
H          6.42324        2.37321        1.56373
H          6.19484        0.07931        1.73886
