13
-1393.65
C          3.25868       -1.01156        0.53139
O          2.39396        0.08971        0.28044
C          2.98104        1.27851        0.16720
C          2.47338        2.53633       -0.06964
C          3.58086        3.41813       -0.08396
C          4.69129        2.63932        0.14522
O          4.33610        1.33715        0.29910
H          2.64498       -1.91422        0.59996
H          3.78627       -0.88755        1.48349
H          3.97020       -1.14736       -0.29050
H          1.43020        2.77649       -0.21297
H          3.57187        4.48730       -0.24148
H          5.74955        2.84693        0.22453
