15
-1598.57
C          1.83056       -1.00111       -0.62249
C          2.68441       -0.44550        0.24971
C          3.08587        1.00820        0.25270
C          2.70857        1.66392        1.55709
C          1.86442        2.69927        1.67634
C          4.54633        1.10403        0.06599
C          5.73463        1.18216       -0.09594
H          1.59088       -2.05821       -0.56631
H          1.35735       -0.41978       -1.40802
H          3.13103       -1.07975        1.01375
H          2.59491        1.52994       -0.57959
H          3.16296        1.25901        2.46016
H          1.38303        3.14645        0.81199
H          1.63987        3.12210        2.65059
H          6.78783        1.24943       -0.24222
