19

C	1.1473	2.334018	0.178489
N	2.521311	2.260655	-0.248563
C	3.281606	1.212783	0.388573
C	4.721203	1.203615	-0.08473
C	5.609497	2.312013	0.527015
N	6.088488	1.344273	1.510036
C	5.630234	0.2265	0.687219
H	0.638471	3.173846	-0.318713
H	1.008664	2.451423	1.27674
H	0.613565	1.413921	-0.114103
H	2.980991	3.155951	-0.097619
H	2.817451	0.241846	0.132671
H	3.273338	1.272692	1.502403
H	4.742536	1.131196	-1.182456
H	5.100403	3.197236	0.953527
H	6.373688	2.673533	-0.189354
H	7.074017	1.374078	1.75557
H	6.403657	-0.225588	0.034982
H	5.129821	-0.58924	1.240534
