17
-1707.7
C          2.90013       -0.16151        0.68048
C          4.19462        0.18976       -0.02991
O          4.41149        1.59120        0.12157
C          5.52849        2.14499       -0.46275
C          6.55236        1.46555       -1.00567
C          5.53593        3.59804       -0.46053
C          4.55946        4.37874        0.01845
H          2.65123       -1.21633        0.53913
H          2.07237        0.45290        0.30862
H          2.98678        0.03843        1.75450
H          4.10506       -0.05900       -1.09257
H          5.01406       -0.37879        0.42090
H          6.59744        0.38348       -1.02485
H          7.39956        1.98074       -1.44828
H          6.40762        4.08401       -0.89466
H          3.65805        3.96523        0.46234
H          4.64119        5.46030       -0.02704
