16
-1619.98
C          1.52451       -0.42779       -0.59046
C          2.90273       -0.22922        0.02081
C          3.18244        1.22050        0.28407
C          4.19253        1.90299       -0.27745
C          4.39871        3.33315        0.04755
N          5.46453        3.89077       -0.58517
O          3.69087        3.97329        0.81090
H          1.33787       -1.49259       -0.76369
H          1.43887        0.09166       -1.55096
H          0.73806       -0.05107        0.07243
H          3.65827       -0.65998       -0.64650
H          2.96304       -0.77697        0.96806
H          2.51826        1.72559        0.98545
H          4.87410        1.43200       -0.97359
H          6.07132        3.39233       -1.21812
H          5.65349        4.86660       -0.39797
