18

N	0.932183	0.029494	0.18429
C	2.366254	0.045295	0.021519
C	3.134063	1.070727	0.877637
C	4.162904	-0.02991	1.229933
C	5.436181	0.025208	0.404922
O	6.271215	1.09206	0.762251
C	3.141929	-1.077177	0.737855
H	0.53223	-0.760489	-0.320821
H	0.522052	0.864119	-0.233277
H	2.702171	0.114584	-1.035
H	2.529395	1.36553	1.747706
H	3.499825	1.984916	0.377162
H	4.443165	-0.087846	2.293633
H	5.179228	0.047449	-0.676471
H	6.016661	-0.897787	0.569502
H	5.763758	1.905596	0.67021
H	3.525243	-1.909661	0.124951
H	2.539543	-1.484217	1.562829
