16

C	2.633706	-0.49044	1.374724
C	2.507448	0.156619	-0.003614
C	2.925283	1.602691	-0.034428
C	2.034381	2.600936	-0.145695
N	4.287102	1.885812	0.111431
C	5.355154	1.034833	0.070509
O	6.501529	1.398125	0.179278
H	2.289627	-1.534866	1.346054
H	2.02111	0.050781	2.110674
H	3.66984	-0.492135	1.745181
H	1.460393	0.111246	-0.335896
H	3.0817	-0.419316	-0.750045
H	0.970463	2.381289	-0.241153
H	2.340974	3.650407	-0.142684
H	4.549409	2.862507	0.214219
H	5.071301	-0.030468	-0.076475
