15
-1481.87
N          2.31934       -0.45041       -0.90654
C          2.47012       -0.02677        0.48628
C          3.46923        1.08594        0.60311
N          4.04343        1.70668       -0.59578
C          3.09055        2.49080        0.18895
C          3.59050        3.59086        0.95721
C          4.00865        4.51532        1.60022
H          1.63853       -1.20867       -0.94578
H          3.20387       -0.86389       -1.20772
H          2.79926       -0.88181        1.08667
H          1.50123        0.29862        0.87950
H          4.13666        0.96377        1.44804
H          3.56225        1.31414       -1.41206
H          2.12197        2.63973       -0.27866
H          4.38899        5.33457        2.16377
