19

C	-1.243829	-0.77698	-0.525409
C	-1.2463	0.776007	-0.520768
C	-0.005249	1.124696	0.316392
C	1.248886	0.77925	-0.502563
C	1.251294	-0.773784	-0.506065
C	-0.002205	-1.126737	0.310568
C	-0.011617	-0.003732	1.356226
H	-1.190601	-1.203801	-1.538775
H	-2.154913	-1.179435	-0.055398
H	-2.158165	1.172559	-0.047218
H	-1.195694	1.209298	-1.531505
H	-0.009459	2.15118	0.710782
H	2.152786	1.179137	-0.016727
H	1.210883	1.211559	-1.514257
H	2.156012	-1.172931	-0.02112
H	1.215509	-1.201747	-1.519676
H	-0.003895	-2.155269	0.699609
H	-0.911953	-0.006549	1.992308
H	0.878971	-0.004272	2.005908
