16
-1615.41
C          0.87189       -0.15332       -0.26559
C          2.35390        0.02562       -0.16227
C          3.04486        1.13779        0.16524
C          2.40754        2.46899        0.47231
C          4.50395        1.05480        0.21854
C          5.34878        2.04220        0.54328
H          0.56910       -1.02276        0.32745
H          0.59396       -0.34126       -1.30734
H          0.29445        0.69939        0.09451
H          2.90515       -0.88891       -0.38126
H          1.32283        2.47272        0.34763
H          2.79586        3.24512       -0.19694
H          2.61295        2.76284        1.50756
H          4.94541        0.08920       -0.02846
H          5.01945        3.03993        0.80956
H          6.41966        1.86266        0.55049
