15

C	1.000784	-0.048574	0.04607
C	2.52271	0.032395	-0.058583
C	3.06132	-0.580487	-1.329869
N	2.294586	-1.180135	-2.147216
N	2.806041	-1.779493	-3.233967
C	3.013007	1.407713	0.075395
C	3.422231	2.543488	0.176989
H	0.6588	0.379304	0.99882
H	0.674096	-1.094635	-0.021271
H	0.529522	0.501904	-0.779756
H	2.959866	-0.537645	0.785894
H	4.149989	-0.485826	-1.505311
H	3.705034	-1.432011	-3.57323
H	2.118087	-1.889113	-3.968527
H	3.782277	3.551245	0.269373
