17

C	2.327455	0.17749	2.426235
O	3.359103	1.042287	2.062607
C	3.093053	1.872102	0.957727
C	2.101887	2.978679	1.279571
C	4.460576	2.416807	0.534557
C	4.431241	3.205329	-0.688248
C	4.388978	3.862355	-1.705116
H	2.71064	-0.481801	3.21822
H	1.997357	-0.454145	1.57699
H	1.438865	0.704952	2.822036
H	2.692272	1.259452	0.121837
H	2.464527	3.570624	2.134821
H	1.111032	2.575221	1.533012
H	1.98132	3.647476	0.41475
H	5.140697	1.557959	0.413628
H	4.865575	3.01974	1.365772
H	4.356414	4.443603	-2.607899
