16
-1530.41
C          1.37519        0.25220        0.79902
N          2.81901        0.31599        0.97464
C          3.44582        1.15949       -0.05309
C          4.97427        1.02824        0.00224
O          5.35068       -0.30945       -0.33727
C          5.58922        2.02881       -0.96040
O          6.26870        1.68607       -1.92635
H          0.94070       -0.38322        1.57645
H          1.10591       -0.17418       -0.17314
H          0.92345        1.24500        0.89179
H          3.21697       -0.62515        0.89152
H          3.14884        2.20402        0.09644
H          3.10161        0.84589       -1.04730
H          5.35924        1.24835        1.00402
H          5.88132       -0.24529       -1.15815
H          5.40814        3.09286       -0.73277
