12

C	0.952721	0.024578	0.016875
C	2.436401	0.068513	-0.019841
C	3.296372	1.110184	-0.087932
N	4.590126	0.666683	-0.220586
O	4.587378	-0.702069	-0.066327
C	3.265647	-1.133323	0.002201
O	2.993317	-2.2988	0.053287
H	0.516188	1.03249	0.026048
H	0.60276	-0.516563	0.909866
H	0.556593	-0.518822	-0.855972
H	3.101029	2.183531	-0.1037
H	5.324559	1.074287	0.355091
