18
-1706.47
C          1.35888       -0.01900       -0.74957
N          2.81406        0.03527       -0.77071
C          3.31837        0.92158        0.27435
C          4.81254        0.89195        0.20398
C          5.56588        1.88677       -0.64421
C          5.61186        1.99042        0.85422
O          6.84796        1.60127        1.46914
H          1.00988       -0.71490       -1.51792
H          0.91884        0.96115       -0.95664
H          0.98888       -0.38148        0.21466
H          3.12423        0.38097       -1.67793
H          3.00433        0.56748        1.26332
H          2.93582        1.94108        0.13717
H          5.19817       -0.11848        0.27957
H          5.00769        2.64593       -1.18015
H          6.45208        1.54513       -1.16559
H          5.07384        2.81491        1.31172
H          7.20727        0.78077        1.09147
