15

C	1.000255	0.040718	-0.043176
N	2.436	-0.018596	-0.006011
C	3.262225	1.071422	0.010509
N	4.525123	0.733663	0.044455
C	4.526395	-0.629687	0.049931
C	3.243373	-1.136409	0.019361
C	2.717735	-2.523637	-0.009991
H	0.659685	1.082667	-0.068518
H	0.564902	-0.432478	0.851128
H	0.611147	-0.462513	-0.941929
H	2.847455	2.07957	-0.002363
H	5.447563	-1.211503	0.077979
H	1.645002	-2.560189	0.227466
H	3.232418	-3.162269	0.722861
H	2.846912	-2.998299	-0.997143
