11
-1280.5
O          1.13653        0.02408       -0.46252
C          2.31233       -0.01501       -0.14177
C          3.14009       -1.25002        0.03677
C          4.44835       -0.64179        0.43752
O          5.47022       -1.24753        0.71277
C          4.35570        0.83245        0.46130
C          3.11438        1.19663        0.12471
H          3.24028       -1.78330       -0.90987
H          2.74043       -1.86722        0.84255
H          5.18861        1.46522        0.71655
H          2.71162        2.19194        0.04494
