15
-1512.61
O          1.70556       -0.13297       -0.91508
C          2.85535        0.09574       -0.09576
C          3.50460       -1.10658        0.52601
C          4.14840       -0.38346       -0.62750
C          5.13282        0.71210       -0.41917
O          4.39345        1.88424       -0.03269
C          3.08433        1.48229        0.40904
H          0.88247       -0.04831       -0.40394
H          3.07125       -2.07996        0.32850
H          3.94539       -1.00668        1.51047
H          4.17878       -0.83543       -1.60707
H          5.84561        0.47102        0.37613
H          5.68893        0.94262       -1.33270
H          3.05906        1.51954        1.50264
H          2.35494        2.19568        0.01513
