17
-1573.75
C          1.76271       -0.74205        1.80077
C          2.49535       -0.67489        0.46794
C          3.49255        0.48288        0.39948
N          4.56466        0.32388        1.37771
O          5.38683       -0.78128        1.12140
C          5.25418        1.40477        1.86656
N          6.46490        1.41460        2.30383
H          1.01246       -1.53849        1.77821
H          1.25027        0.20097        2.01503
H          2.45209       -0.95456        2.62358
H          1.75675       -0.54859       -0.33270
H          3.00210       -1.62974        0.28578
H          2.95824        1.42487        0.57301
H          3.92462        0.53856       -0.60680
H          5.30728       -1.29902        1.94566
H          4.65930        2.33426        1.88302
H          6.83202        0.46656        2.16197
