18
-1711.42
C          2.17698       -0.55605       -1.43869
C          2.47618       -0.03260       -0.04188
C          3.26401        1.27544       -0.08994
O          4.55092        1.04180       -0.72251
C          2.48378        2.52746       -0.57760
N          3.05934        3.29985        0.54551
C          3.32257        2.03397        1.26595
H          1.59951       -1.48396       -1.37899
H          3.09818       -0.76667       -1.99108
H          1.59666        0.16918       -2.01761
H          3.04307       -0.78837        0.51499
H          1.52782        0.10817        0.49107
H          4.99496        1.90580       -0.70697
H          1.39108        2.44351       -0.53201
H          2.76051        2.90128       -1.56841
H          3.90318        3.81689        0.30041
H          4.28623        2.00424        1.78401
H          2.53664        1.77247        1.98453
