16
-1484.15
N          1.02785        0.01987        0.07665
C          2.48016       -0.00845       -0.05155
C          3.10043        1.04251        0.89890
C          4.15519       -0.03804        1.25627
C          3.06749       -1.08249        0.90703
N          3.66207       -2.17310        0.13781
H          0.56558       -0.77156       -0.36866
H          0.59918        0.85628       -0.31567
H          2.86573        0.01872       -1.07641
H          2.48262        1.34051        1.75583
H          3.49518        1.94211        0.41922
H          5.03299       -0.01528        0.59802
H          4.49465       -0.03528        2.29577
H          2.44920       -1.39044        1.75770
H          4.22582       -1.87874       -0.65792
H          2.96919       -2.82219       -0.23160
