17
-1670.72
C          0.94899       -0.14892        0.07360
C          2.45628       -0.09024       -0.15326
C          2.90627       -1.15516       -1.14563
C          2.87298        1.28369       -0.66020
O          2.16123        1.96485       -1.40264
C          4.26007        1.77433       -0.25802
O          4.51283        3.08801       -0.73359
H          0.63034        0.63698        0.76693
H          0.65777       -1.11474        0.49916
H          0.39499       -0.00973       -0.86111
H          2.95020       -0.25781        0.81135
H          2.44592       -1.00250       -2.12821
H          2.63629       -2.15608       -0.79386
H          3.99202       -1.12816       -1.28558
H          5.01424        1.10413       -0.67776
H          4.33664        1.78509        0.83225
H          3.81006        3.28097       -1.38841
