16
-1518.31
N          0.82387        0.19451       -0.19974
C          2.27185        0.09759        0.13713
C          2.56656        0.08481        1.63059
O          1.63146       -0.78216        2.27495
C          3.13708       -0.76204       -0.75352
C          3.27960        0.73088       -0.80126
O          4.47229        1.26082       -0.20618
H          0.67635        0.09669       -1.20425
H          0.48438        1.12951        0.03600
H          2.44034        1.08972        2.04725
H          3.57657       -0.26726        1.86229
H          0.85417       -0.78055        1.68031
H          2.67839       -1.25911       -1.59924
H          3.92847       -1.34143       -0.29165
H          2.89876        1.24075       -1.68030
H          5.22640        1.20228       -0.81889
