17
-1619.65
C          1.04222        0.14732       -0.50063
N          2.48897        0.20204       -0.68783
C          3.01995        1.47441       -0.14247
C          4.54315        1.55578       -0.30878
O          5.16999        2.58969       -0.09636
N          5.13723        0.37556       -0.69757
C          6.56469        0.24053       -0.78332
H          0.65765       -0.79395       -0.90652
H          0.53998        0.96900       -1.02293
H          0.77820        0.18206        0.56088
H          2.68429        0.19142       -1.69195
H          2.80233        1.55173        0.92762
H          2.58122        2.32582       -0.67457
H          4.54390       -0.44801       -0.62264
H          6.97930        1.06381       -1.37374
H          6.80018       -0.71483       -1.25822
H          6.98708        0.27139        0.22550
