12

C	0.999484	0.013673	-0.008852
N	2.443558	-0.018517	0.000177
C	3.272452	1.085457	0.002634
C	4.587584	0.791006	0.009221
S	4.849306	-0.931314	0.012202
C	3.08108	-1.243662	0.003658
O	2.536878	-2.31872	0.002002
H	0.659691	1.056052	0.010515
H	0.598298	-0.516663	0.867561
H	0.607769	-0.480281	-0.91074
H	2.831022	2.081547	-0.000386
H	5.413298	1.499331	0.012779
