19
-1924.95
C          0.95474        0.01812        0.00975
C          2.48735        0.00553       -0.02763
C          2.98216        0.15503       -1.46768
C          3.05851       -1.27044        0.62957
C          3.36611       -0.89884        2.08196
C          3.51820        0.58377        2.01552
C          3.04256        1.08112        0.86905
H          0.57194       -0.09879        1.03034
H          0.54245       -0.79909       -0.59261
H          0.55636        0.95934       -0.38622
H          4.07670        0.18826       -1.51731
H          2.60563        1.07859       -1.92221
H          2.64582       -0.68471       -2.08604
H          3.99177       -1.57784        0.13764
H          2.37459       -2.12452        0.56980
H          4.28074       -1.38817        2.42829
H          2.54246       -1.16747        2.75111
H          3.93059        1.17843        2.81884
H          3.01777        2.13582        0.62519
