14
-1373.73
O          0.75814        1.30464       -0.67456
N          2.11844        1.38135       -0.99272
C          2.80726        1.11503        0.07093
C          4.31010        1.16351        0.03778
C          4.79221        2.60387       -0.05923
C          4.48420        3.40663        1.17989
O          4.05018        2.92790        2.22246
H          0.33049        1.55151       -1.51586
H          2.32945        0.88563        1.04024
H          4.65336        0.60069       -0.83729
H          4.69382        0.66707        0.93524
H          4.32786        3.11577       -0.90945
H          5.87810        2.62657       -0.20084
H          4.70623        4.48479        1.10599
