19

C	2.13428	-0.52117	-1.433244
C	2.443509	0.003496	-0.040535
C	3.24522	1.290676	-0.055822
O	4.464367	1.001995	-0.700042
C	2.556736	2.569121	-0.6081
C	3.137273	3.367504	0.577171
C	3.436989	2.033886	1.292029
H	1.574141	-1.467436	-1.39256
H	3.065823	-0.692009	-1.991073
H	1.529097	0.200908	-2.005876
H	3.024855	-0.742134	0.529146
H	1.513166	0.17898	0.524773
H	4.975689	1.8148	-0.768784
H	1.458495	2.497133	-0.568935
H	2.851133	2.862405	-1.627531
H	4.050069	3.923885	0.310252
H	2.461626	4.069881	1.087413
H	4.424746	1.904493	1.761377
H	2.661937	1.766536	2.026382
