13
-1251.48
C          0.39877        0.03216       -0.14668
C          1.63130       -0.23072        0.30821
C          2.76866        0.74574        0.31016
O          3.89200        0.12158       -0.31499
N          4.99294        0.98977       -0.23428
C          6.01324        0.40887       -0.76761
H         -0.37734       -0.72644       -0.11559
H          0.13626        1.00220       -0.55689
H          1.84782       -1.21641        0.71289
H          3.02351        0.99992        1.34497
H          2.51466        1.66251       -0.23458
H          6.98375        0.92760       -0.80481
H          5.97011       -0.60555       -1.19905
