15
-1572.7
C          0.84779        0.42847       -0.24472
C          2.13855        0.25187        0.07486
C          3.26298        1.24645        0.00688
O          3.83790        1.34539        1.32579
C          3.68550        2.69532        1.79678
C          3.13023        3.46160        0.65803
C          2.88640        2.63798       -0.35910
H          0.13905       -0.38754       -0.14052
H          0.46168        1.37700       -0.60231
H          2.44085       -0.73059        0.43405
H          4.03987        0.87197       -0.66844
H          4.66554        3.07189        2.10227
H          3.00908        2.69796        2.65631
H          2.94831        4.52533        0.66732
H          2.48206        2.92482       -1.31806
