14

O	0.976245	0.087524	-0.443034
C	2.286832	0.036068	0.074432
C	3.083681	1.298301	-0.231446
C	3.509741	1.19877	-1.677942
O	4.373658	0.08946	-1.870794
N	3.9542	-1.104845	-1.388849
C	2.988937	-1.137723	-0.550976
H	0.475448	0.720843	0.082991
H	2.26868	-0.148535	1.16747
H	2.469138	2.195887	-0.057548
H	3.97099	1.363147	0.419251
H	4.078744	2.069466	-2.030073
H	2.60996	1.069571	-2.309351
H	2.695377	-2.147083	-0.243483
