13

O	1.703803	0.035937	1.330298
C	2.399765	0.010148	0.344131
N	2.86519	-1.113508	-0.318842
C	3.86896	-0.790555	-1.275
C	5.104684	-0.058583	-0.806148
C	3.899554	0.71217	-1.292599
N	2.910111	1.098248	-0.344947
H	2.804327	-2.00834	0.146819
H	3.888786	-1.378178	-2.197209
H	5.327373	-0.050533	0.264785
H	5.973569	-0.08399	-1.468997
H	3.94298	1.276939	-2.228176
H	2.888208	2.004756	0.101285
