16

C	0.585588	0.379806	-0.807881
C	0.058997	1.309351	0.221181
N	0.194471	-0.101849	0.49609
C	1.243531	-0.499243	1.391505
C	0.84038	-0.711604	2.856334
O	1.349263	-2.042568	2.84936
C	1.560837	-1.999228	1.441036
H	-0.039312	0.062108	-1.64893
H	1.658451	0.445384	-1.034593
H	-0.964441	1.693911	0.157926
H	0.779023	1.997533	0.684324
H	2.156292	0.125556	1.287277
H	-0.254906	-0.673816	3.000648
H	1.331726	-0.073866	3.610975
H	2.581828	-2.306621	1.156343
H	0.826223	-2.604395	0.879004
