15
-1473.01
C          0.82469        0.07986        0.06015
C          2.28163        0.07516        0.38776
C          3.19968        0.81242       -0.25799
C          4.63141        0.83353        0.03540
C          5.50365       -0.27876       -0.48576
N          5.53096        1.04468       -1.09493
H          0.50385       -0.92688       -0.22532
H          0.58652        0.76037       -0.76363
H          0.24679        0.38969        0.93634
H          2.59394       -0.57627        1.19992
H          2.87211        1.46030       -1.06985
H          4.91273        1.31642        0.96524
H          5.05377       -1.06474       -1.07995
H          6.37176       -0.56932        0.09180
H          6.35668        1.56704       -0.80014
