14
-1458.58
C          0.99967       -0.05388        0.00312
C          2.52000        0.00000        0.00000
C          3.00202        1.36117        0.00000
C          3.39930        2.48307        0.00000
C          3.86863        3.80842        0.00000
C          3.02977        4.84978        0.00000
H          0.65759       -1.09273        0.00268
H          0.58536        0.44199       -0.88046
H          0.58909        0.44000        0.88954
H          2.89554       -0.53277       -0.88084
H          2.89922       -0.53412        0.87844
H          4.94176        3.97416       -0.00000
H          1.95247        4.71472        0.00001
H          3.40950        5.86584        0.00000
