21
-2051.87
C          0.85797        1.02773       -1.31742
C          2.37867        1.04364       -1.29339
C          2.91316        1.66726       -0.00258
C          4.41688        1.66810        0.01264
C          5.25239        2.72460        0.03109
C          4.83638        4.16954        0.02845
C          6.74556        2.51733        0.05192
H          0.49887        0.57185       -2.24503
H          0.45497        2.04342       -1.25980
H          0.45888        0.45036       -0.47794
H          2.74518        1.60520       -2.16223
H          2.74814        0.01534       -1.39626
H          2.56404        1.08412        0.85808
H          2.49702        2.67000        0.11872
H          4.85490        0.66840        0.01924
H          3.75548        4.31593       -0.01798
H          5.26882        4.68333       -0.83724
H          5.19608        4.66493        0.93655
H          7.01930        1.45711        0.04732
H          7.17805        2.96836        0.95139
H          7.20511        2.98195       -0.82642
