18
-1699.17
C          1.47680        1.54828        1.50709
O          2.89252        1.41862        1.50859
C          3.45446        1.76254        0.24231
C          4.95795        1.60973        0.33628
C          5.77050        2.11550       -0.87215
N          6.77638        2.65058        0.07415
C          5.72259        2.69613        1.11802
H          1.10228        1.24797        2.48946
H          1.03178        0.89626        0.74903
H          1.18910        2.58835        1.32604
H          3.17459        2.79036       -0.01700
H          3.05717        1.08686       -0.52380
H          5.25024        0.59149        0.63255
H          5.28361        2.89540       -1.46979
H          6.14398        1.34042       -1.54770
H          7.51554        1.98085        0.29201
H          6.05807        2.41098        2.11945
H          5.22105        3.66927        1.18011
