13
-1406.44
O          1.08291       -0.05373        0.35813
C          2.45654       -0.01598        0.01424
C          2.85551       -1.22381       -0.83513
C          3.38071       -0.64262       -2.11429
C          3.35760        0.69053       -2.17699
C          2.77559        1.14566       -0.90769
O          2.53996        2.32034       -0.66222
H          0.85566        0.84634        0.66177
H          3.06276        0.05089        0.92337
H          2.01150       -1.89352       -1.02805
H          3.64682       -1.79790       -0.34092
H          3.74011       -1.26939       -2.92064
H          3.65874        1.34524       -2.97524
