14

C	1.083776	0.186532	-0.01265
C	2.583793	-0.104113	-0.0984
C	2.895436	-0.931805	-1.267288
N	3.121512	-1.57393	-2.203019
C	3.396727	1.176355	-0.132167
C	3.861598	1.796082	1.108332
O	4.740117	1.087489	0.260729
H	0.867723	0.763425	0.898438
H	0.501448	-0.744377	0.016433
H	0.746891	0.771714	-0.881459
H	2.906814	-0.67506	0.789187
H	3.205285	1.816674	-1.00605
H	3.632755	1.314446	2.068929
H	4.008265	2.882827	1.154345
