19

N	1.009076	-0.014149	-0.241727
C	2.454415	-0.013926	-0.11311
C	2.963123	1.41594	0.081091
N	2.316705	2.088599	1.205061
C	4.478837	1.491676	0.220595
C	5.00762	2.922683	0.254371
O	4.55701	3.650218	1.354672
H	0.628319	-0.951725	-0.146976
H	0.734471	0.317523	-1.164676
H	2.992758	-0.480671	-0.965144
H	2.725268	-0.601002	0.782858
H	2.685923	1.987789	-0.828289
H	2.565831	1.599862	2.067381
H	1.308053	1.963055	1.10434
H	4.947956	0.947434	-0.616967
H	4.785215	0.972395	1.148366
H	4.739441	3.414402	-0.708723
H	6.110722	2.90197	0.290388
H	3.597978	3.467567	1.412988
