18
-1720.2
C          1.09098        0.11297        0.22390
C          2.55239       -0.06734       -0.17971
N          2.63757       -0.52943       -1.57275
C          3.32138        1.23315       -0.07036
O          3.07196        2.17616       -1.13095
C          3.64311        1.83295        1.27188
C          4.73997        1.22938        0.44077
H          1.01366        0.43429        1.26833
H          0.53602       -0.82597        0.12164
H          0.59188        0.87249       -0.38904
H          3.00752       -0.82721        0.46588
H          2.03092        0.06477       -2.13889
H          2.22165       -1.45857       -1.62979
H          3.39206        1.78636       -1.96505
H          3.33692        1.30350        2.16566
H          3.60659        2.91258        1.36132
H          5.45080        1.90193       -0.02490
H          5.16943        0.28945        0.76575
