16
-1555.97
C          1.00752       -1.29939        1.43638
C          1.79512       -0.87653        0.20388
O          1.08455       -1.36632       -0.93331
C          1.93975        0.65657        0.13996
N          3.08208        1.11800       -0.64258
C          3.25289        0.82348       -1.96832
O          2.54994        0.06832       -2.62277
H          1.52201       -1.00803        2.35703
H          0.86510       -2.38550        1.44598
H          0.00790       -0.85085        1.43552
H          2.77847       -1.35935        0.22148
H          1.53423       -1.00012       -1.72796
H          2.09181        1.06720        1.14391
H          1.04393        1.11268       -0.29642
H          3.66917        1.83946       -0.24449
H          4.12932        1.34019       -2.39727
