21
-2049.55
C          0.84443       -0.15866        0.13201
C          2.33052        0.01445        0.18164
C          3.04495        1.14320       -0.01147
C          2.40817        2.48972       -0.26698
C          4.57699        1.18355        0.03462
C          5.24730        0.03073        0.79343
C          5.15593        1.26490       -1.38176
H          0.60203       -1.03199       -0.48279
H          0.31652        0.69233       -0.30218
H          0.45633       -0.33554        1.13952
H          2.85470       -0.91883        0.37683
H          1.33547        2.50860       -0.06231
H          2.55830        2.79209       -1.30787
H          2.85560        3.25053        0.38196
H          4.86497        2.09850        0.57025
H          5.13413       -0.92521        0.27043
H          4.83274       -0.07271        1.80234
H          6.32227        0.21850        0.89852
H          4.89004        0.38046       -1.97188
H          6.24906        1.33250       -1.35103
H          4.78990        2.14830       -1.91536
