15

C	1.027797	-0.05782	-0.020506
C	2.529324	0.00393	-0.04748
N	3.284045	-0.536301	-1.167696
C	3.234968	0.902523	-0.988628
C	4.539479	1.576098	-0.621646
C	5.347476	1.894747	-1.794796
N	5.961206	2.158437	-2.739728
H	0.613573	0.653214	0.710884
H	0.681329	-1.065017	0.259921
H	0.600554	0.184528	-1.006729
H	3.009891	-0.185114	0.922472
H	2.667425	-0.836686	-1.921795
H	2.602397	1.487593	-1.66921
H	5.120325	0.910021	0.035482
H	4.349781	2.509916	-0.066444
