11

O	1.127198	-0.00548	0.416943
C	2.291058	-0.00849	0.147792
C	3.327713	1.090705	-0.078205
C	4.308067	-0.003635	-0.566496
C	3.301383	-1.110415	-0.167353
H	3.617416	1.582207	0.865232
H	3.028754	1.873631	-0.792774
H	4.497366	0.037932	-1.6484
H	5.275476	-0.035942	-0.04817
H	2.984427	-1.825578	-0.942763
H	3.578091	-1.684295	0.732714
