16

O	1.524655	-0.013304	1.112546
C	2.436219	0.098381	0.321798
N	3.012896	1.270165	-0.025299
C	2.567842	2.537431	0.535428
C	3.27751	3.57017	-0.336061
C	4.568184	2.855367	-0.734219
C	4.101056	1.422412	-0.978028
H	2.896644	-0.77477	-0.204641
H	2.870902	2.616252	1.595116
H	1.469288	2.604994	0.51179
H	2.675304	3.785945	-1.234125
H	3.448169	4.523048	0.184984
H	5.063722	3.295421	-1.611406
H	5.285969	2.877987	0.102858
H	3.744703	1.296873	-2.01783
H	4.894666	0.677908	-0.806262
