18

C	2.748372	-1.572261	-0.388924
C	2.105263	-0.22196	-0.163125
O	1.170338	-0.346648	0.879533
C	3.085921	0.892932	0.181385
C	4.05301	0.607461	1.301429
C	3.424233	1.895274	-0.851235
N	2.407952	2.188491	0.156086
H	3.510908	-1.516407	-1.180479
H	1.983428	-2.303366	-0.686348
H	3.219415	-1.940097	0.534434
H	1.594959	0.087314	-1.098978
H	0.803694	0.539531	0.999553
H	4.61312	1.51261	1.583503
H	4.783474	-0.16532	1.018506
H	3.50069	0.247873	2.183616
H	3.053405	1.780972	-1.876455
H	4.397655	2.39412	-0.777457
H	2.786993	2.805621	0.873756
