13
-1369.93
C          1.04725       -0.01322       -0.11390
C          2.54864       -0.00726        0.08739
N          3.14213       -1.25492       -0.48243
C          3.99242       -0.83653       -1.35695
N          4.10437        0.48736       -1.52026
C          3.22273        1.10195       -0.69601
O          3.02047        2.30214       -0.62503
H          0.59693        0.89909        0.29077
H          0.59154       -0.87428        0.38576
H          0.78604       -0.06791       -1.17683
H          2.81940        0.07417        1.14496
H          4.62746       -1.48135       -1.97993
H          4.69181        0.98019       -2.17254
