16
-1444.6
C          0.99441        0.07016       -0.05905
C          2.51805        0.02311       -0.02818
C          3.06744       -0.83017       -1.16612
S          3.22836        1.68351       -0.04854
N          2.71488        2.30535       -1.51569
O          2.59057        2.50061        0.95680
O          4.66680        1.59852       -0.15238
H          0.60120        0.65629        0.77784
H          0.57487       -0.93861        0.01470
H          0.62350        0.52262       -0.98451
H          2.83950       -0.41066        0.92634
H          2.79575       -0.42091       -2.14465
H          2.67629       -1.85129       -1.10742
H          4.15983       -0.88913       -1.12269
H          3.52152        2.50747       -2.10947
H          2.11541        3.11778       -1.35847
