16
-1572.15
C          1.00000        0.00000        0.00000
C          2.44400        0.00000        0.00000
C          3.63416        0.00000        0.00000
C          5.07816        0.00000        0.00000
N          5.58379       -0.70051       -1.19447
C          5.65160        1.43090        0.02169
O          7.07495        1.39446       -0.12539
H          0.60601        1.02088        0.01163
H          0.60593       -0.52052        0.87825
H          0.60601       -0.50032       -0.88995
H          5.46445       -0.53942        0.87232
H          5.16707       -0.26660       -2.01989
H          5.21487       -1.65239       -1.17757
H          5.41772        1.93502        0.96544
H          5.24706        2.03939       -0.79529
H          7.23831        0.64381       -0.73429
