16
-1514.91
N          1.20933        0.15281        0.05813
C          2.64925       -0.09638       -0.12871
C          2.88187       -0.81928       -1.47123
O          2.10985       -0.20600       -2.50987
C          3.34752        1.23353       -0.10977
C          3.91327        1.80614        1.16610
O          4.74871        1.16190        0.19610
H          1.06541        0.58367        0.97093
H          0.72515       -0.74474        0.10055
H          3.01968       -0.72834        0.68538
H          2.55692       -1.86242       -1.39955
H          3.93586       -0.80167       -1.76788
H          1.33485        0.17752       -2.04860
H          3.03801        1.90956       -0.89755
H          3.74719        1.28582        2.10148
H          3.99266        2.88301        1.25461
