13

O	0.987128	0.02238	0.021244
C	2.388371	0.077516	-0.031967
C	2.876763	1.403666	0.496115
C	3.657984	1.26282	1.574441
C	3.839698	-0.180608	1.894036
O	4.462603	-0.923067	0.840237
C	3.058723	-0.927776	0.903182
H	0.698111	-0.74071	-0.4897
H	2.76794	-0.071469	-1.064486
H	2.621741	2.34528	0.005041
H	4.135613	2.074257	2.126362
H	4.047809	-0.537308	2.908261
H	2.565996	-1.88673	1.112663
