15
-1484.65
C          1.07367       -0.01098        0.02951
C          2.58515       -0.01012        0.07853
C          3.27497       -1.35624       -0.08311
C          3.40761       -1.71478       -1.50359
C          3.51419       -2.01408       -2.66283
N          3.17762        1.14125        0.23138
N          4.52685        1.12883        0.23290
H          0.68051        0.99625        0.19283
H          0.68561       -0.67435        0.80718
H          0.74088       -0.36849       -0.94851
H          2.67265       -2.11148        0.43452
H          4.25385       -1.35402        0.40526
H          3.60664       -2.28112       -3.69028
H          4.88839        0.95708       -0.70974
H          4.87153        2.06091        0.47772
