14
-1468.38
C          0.97348       -0.02992       -0.07473
C          2.31404        0.00000        0.00000
C          3.01704       -1.21763        0.00000
C          3.61212       -2.24834        0.00000
C          3.13631        1.21999        0.01720
C          2.74657        2.39805        0.87911
N          3.86499        1.54753        1.24791
H          0.39160        0.88441       -0.10431
H          0.42631       -0.96725       -0.10300
H          4.14702       -3.16891        0.00813
H          3.65562        1.43062       -0.91300
H          1.87646        2.32847        1.52004
H          2.98480        3.39485        0.52934
H          4.76015        1.98039        1.01944
