19
-1842.27
C          1.96244        0.30468        0.91202
O          3.36395        0.53361        0.95840
C          3.81780        1.24300       -0.19250
C          5.31267        1.43692       -0.07983
C          6.10281        0.15580       -0.05529
C          5.84243        2.67629       -0.02499
C          7.28136        3.06777        0.09080
H          1.67227       -0.23634        1.81613
H          1.70275       -0.30488        0.04149
H          1.41916        1.25391        0.88363
H          3.29241        2.20317       -0.25537
H          3.58949        0.66825       -1.09826
H          5.85684       -0.45288       -0.93238
H          5.86425       -0.42273        0.84282
H          7.18340        0.30816       -0.06770
H          5.16315        3.52825       -0.05138
H          7.96732        2.22226        0.15409
H          7.42290        3.67775        0.98856
H          7.56847        3.67004       -0.77679
