15
-1446.64
C          0.47761        0.28565       -0.00822
C          1.72713       -0.54953       -0.10197
C          1.57987       -1.97179       -0.62664
O          2.04600       -2.90585        0.33113
N          2.85861       -0.01863        0.26335
N          3.95019       -0.87402        0.13765
C          5.04031       -0.26038        0.45725
H          0.70347        1.27717        0.39351
H         -0.24069       -0.21154        0.64899
H          0.04036        0.39359       -1.00436
H          2.15261       -2.08216       -1.55221
H          0.52946       -2.18798       -0.83939
H          2.93792       -2.57131        0.56625
H          6.00235       -0.79323        0.41278
H          5.06610        0.79475        0.78104
