19

C	0.55449	1.146986	0.532519
C	1.712449	0.560984	-0.265763
C	3.057578	1.225376	-0.030272
C	3.67912	1.038338	1.337201
O	2.965265	1.653599	2.378507
C	4.010778	1.311219	-1.187746
C	3.312676	2.549751	-0.706495
H	-0.390854	0.639875	0.285263
H	0.425034	2.217991	0.304529
H	0.72851	1.056074	1.613378
H	1.479299	0.623714	-1.342994
H	1.813322	-0.516352	-0.043036
H	4.728131	1.398854	1.303364
H	3.722027	-0.036435	1.581141
H	2.792915	2.562499	2.108184
H	3.695773	0.877631	-2.140664
H	5.082183	1.21405	-0.986376
H	3.909493	3.303396	-0.181732
H	2.51421	2.967539	-1.326679
