13

C	0.978956	0.005731	0.035444
C	2.189478	-0.006787	0.007016
C	3.651955	-0.008028	-0.021051
C	4.301601	-1.253971	0.619869
N	4.562545	-0.783108	1.974757
N	4.714011	0.566693	1.979507
C	4.227364	1.056296	0.904306
H	-0.094975	0.017941	0.067077
H	3.982023	0.126571	-1.064058
H	5.238879	-1.49768	0.082535
H	3.645291	-2.134823	0.609457
H	5.277642	-1.257548	2.513801
H	4.163142	2.133723	0.743401
