12

C	0.934046	0.080701	-0.005879
C	2.421857	-0.005304	-0.001009
N	3.212911	1.025102	0.005558
C	4.519113	0.649466	0.008114
O	5.427416	1.63711	0.01493
C	4.755104	-0.704335	0.003429
S	3.24625	-1.537947	-0.004551
H	0.648841	1.140084	0.002567
H	0.498076	-0.412342	0.876615
H	0.505147	-0.395891	-0.900856
H	6.310193	1.253548	0.016514
H	5.706207	-1.233872	0.004399
