21
-1994.91
C          0.96796       -0.01868       -0.08850
C          2.48381        0.03827        0.01428
C          2.99579        1.47795       -0.04192
C          4.52338        1.52871        0.06644
C          5.05642        2.96474        0.02859
C          6.56809        3.00427        0.20807
O          4.72823        3.57627       -1.21629
H          0.62430       -1.05709       -0.04995
H          0.62187        0.41894       -1.03021
H          0.49831        0.52554        0.73691
H          2.92168       -0.54444       -0.80463
H          2.79859       -0.43321        0.95257
H          2.55150        2.05770        0.77627
H          2.67138        1.94226       -0.98072
H          4.95244        0.95504       -0.76476
H          4.83908        1.04475        0.99850
H          4.58567        3.55884        0.81957
H          7.07369        2.44682       -0.58801
H          6.86459        2.58305        1.17328
H          6.93215        4.03563        0.14984
H          5.13552        3.04867       -1.92462
