14
-1432.27
C          0.96109       -0.07534        0.06963
C          2.46006       -0.08568       -0.00276
C          3.18131       -1.19427        0.22987
C          3.09854        1.22915       -0.35333
C          4.59989        1.32381       -0.45092
O          2.39142        2.21689       -0.55772
H          0.61831        0.63228        0.83171
H          0.55753       -1.06012        0.32857
H          0.53200        0.21350       -0.89548
H          2.69219       -2.13149        0.48145
H          4.26410       -1.22284        0.18266
H          4.96999        0.65941       -1.23596
H          5.05696        1.08256        0.51220
H          4.88010        2.34878       -0.71292
