13
-1286.29
C          1.05962       -0.00562        0.13359
N          2.51153        0.03389       -0.01480
C          3.09391        1.08191        0.84713
C          4.01151       -0.01748        1.40242
O          4.98532       -0.03952        2.12801
C          3.13970       -1.08216        0.72016
H          0.65125       -0.86443       -0.41018
H          0.61416        0.89505       -0.30276
H          0.73101       -0.07620        1.17750
H          2.44286        1.51891        1.61112
H          3.61866        1.87206        0.30512
H          3.69589       -1.78076        0.09070
H          2.50949       -1.63280        1.42616
