17

C	0.943698	-0.057834	-0.151647
C	2.428267	0.052058	0.015156
C	3.105887	1.208345	-0.121551
C	4.588058	1.272008	0.118381
C	5.280574	-0.037318	-0.249443
C	4.511601	-1.223	0.259007
C	3.174351	-1.165551	0.367548
H	0.685052	-0.773524	-0.950257
H	0.487573	0.911225	-0.398378
H	0.471512	-0.43333	0.772263
H	2.567073	2.134274	-0.348512
H	5.038338	2.110295	-0.435295
H	4.760608	1.490719	1.192016
H	6.314341	-0.045862	0.128646
H	5.359234	-0.122664	-1.352573
H	5.046908	-2.150286	0.485715
H	2.608325	-2.043413	0.695452
