13
-1307.72
C          1.01351        0.06994       -0.06154
N          2.36706       -0.05538        0.43124
O          3.14626        1.08914        0.16046
C          4.40521        0.57280       -0.08344
C          4.53667       -0.75004       -0.10621
C          3.15994       -1.14789        0.16566
N          2.81385       -2.38849        0.13129
H          0.59794        1.04893        0.20204
H          0.36953       -0.69398        0.38653
H          0.98031       -0.03831       -1.15159
H          5.16428        1.31857       -0.24698
H          5.37968       -1.38480       -0.28786
H          1.82394       -2.46450        0.37266
