17

O	2.13625	-0.249618	-1.435505
C	2.362238	0.050334	-0.08388
C	3.049275	1.3937	-0.003744
C	2.231045	2.574986	-0.517612
C	2.953154	3.73924	0.140782
O	3.377571	3.262462	1.401741
C	3.376447	1.852089	1.417826
H	1.670133	-1.088587	-1.490161
H	2.996646	-0.716736	0.407764
H	1.413763	0.099577	0.492756
H	3.980784	1.32924	-0.592959
H	1.195089	2.502106	-0.143686
H	2.194083	2.631013	-1.614304
H	3.826284	4.054228	-0.465692
H	2.315342	4.625531	0.290778
H	4.354961	1.478982	1.767279
H	2.610135	1.488885	2.133177
