14
-1389.8
C         -0.70262        1.96358        1.65927
C         -0.59993        0.59897        1.05492
N          0.26568        0.35066        0.13092
O          0.14760       -0.99690       -0.25845
C          1.04592       -1.28368       -1.25885
C          0.89865       -2.72715       -1.64135
O          1.86107       -0.52645       -1.77075
H         -0.54078        1.88614        2.73773
H         -1.70909        2.35283        1.48402
H          0.03494        2.64279        1.22461
H         -1.29500       -0.16984        1.43379
H          1.24671       -3.36212       -0.82389
H          1.50191       -2.92870       -2.53055
H         -0.14512       -2.94465       -1.88083
