16
-1604.1
C          3.55229       -1.23117       -2.32730
C          3.58928       -0.67490       -1.27579
C          3.63416        0.00000        0.00000
N          4.47344        1.19938       -0.06826
C          3.74443        2.33034       -0.70667
C          4.34375        3.23795        0.38297
C          4.42064        1.94306        1.21589
H          3.52817       -1.72481       -3.27108
H          4.06662       -0.68141        0.74332
H          2.61523        0.22187        0.34361
H          2.64850        2.27735       -0.67713
H          4.06055        2.56035       -1.72849
H          5.32067        3.66408        0.12586
H          3.69327        4.02528        0.77055
H          5.31390        1.84376        1.83955
H          3.53305        1.76978        1.83787
