16
-1568.22
N          1.45928       -0.03982        0.46624
C          2.65599       -0.04020       -0.37555
C          2.24347       -0.49139       -1.74767
C          2.73825       -1.56489       -2.37837
C          3.33935        1.30371       -0.37970
C          2.69414        2.59449        0.06803
O          3.58113        1.86121        0.92635
H          1.74448        0.26440        1.39871
H          1.14328       -1.00257        0.57335
H          3.36590       -0.76020        0.05103
H          1.48443        0.10797       -2.24801
H          3.49396       -2.20008       -1.92301
H          2.38980       -1.83661       -3.37068
H          4.15601        1.35239       -1.08932
H          1.64086        2.60363        0.31971
H          3.06056        3.52263       -0.35176
