17
-1753.08
C          1.00000        0.00000        0.00000
C          2.44400        0.00000        0.00000
C          3.63416        0.00000        0.00000
C          5.07816        0.00000        0.00000
C          5.63276        1.42617       -0.07659
C          7.13671        1.44609       -0.07848
C          7.87941        2.05962        0.85144
H          0.60602        1.02089        0.01146
H          0.60592       -0.52033        0.87836
H          0.60593       -0.50047       -0.88983
H          5.44988       -0.58735       -0.84858
H          5.44975       -0.49176        0.90740
H          5.24170        2.02174        0.75884
H          5.28110        1.91379       -0.99487
H          7.63596        0.93885       -0.90186
H          7.42889        2.58790        1.68642
H          8.96414        2.04866        0.79324
