13

C	1.808606	-0.160714	0.193302
N	0.983409	-1.336385	0.530741
C	-0.052567	-0.931917	-0.429484
C	-1.261242	-0.318736	0.221466
N	-1.21386	0.952994	0.298658
O	-0.072164	1.433135	-0.295452
C	0.72298	0.353618	-0.766044
H	2.766954	-0.388175	-0.304339
H	2.005209	0.511559	1.044426
H	1.41439	-2.235824	0.342057
H	-0.292628	-1.653258	-1.228972
H	-2.115706	-0.84842	0.647239
H	1.023529	0.565542	-1.801487
