10
-1108.37
O          1.01649       -0.13613       -0.00306
C          2.32150        0.06310        0.00190
C          3.13090        1.17386        0.00321
C          4.46121        0.68391        0.00949
C          4.36406       -0.68887        0.01155
O          3.06052       -1.07255        0.00693
H          0.60323        0.74137       -0.00634
H          2.81267        2.20542        0.00005
H          5.37736        1.25728        0.01219
H          5.08579       -1.49376        0.01592
