17
-1727.5
C          0.86669        0.11755       -0.17623
C          2.34142       -0.13369        0.01077
C          2.69566       -1.57833        0.22236
C          3.20207        0.90243        0.02004
C          4.68520        0.87377        0.14892
C          5.48213       -0.20222       -0.53800
O          5.23855        1.78268        0.76756
H          0.64115        1.17701       -0.33780
H          0.30951       -0.20980        0.70764
H          0.49763       -0.43574       -1.04609
H          1.97225       -2.05196        0.89525
H          3.67449       -1.71167        0.68756
H          2.67938       -2.11639       -0.73038
H          2.82618        1.92123       -0.05465
H          4.90069       -0.68946       -1.32442
H          5.81597       -0.93969        0.19527
H          6.35384        0.25591       -1.01496
