11
-1240.22
O          1.02776       -0.06720        0.01447
C          2.22985        0.12980        0.03352
C          2.88779        1.45834        0.03074
C          4.21102        1.22980        0.03245
C          4.59794       -0.18700        0.06117
O          4.15066       -1.07185        1.09594
C          3.26664       -0.92914       -0.02272
H          2.35386        2.39101        0.03020
H          4.95246        2.01883        0.03899
H          5.40638       -0.50303       -0.58563
H          3.15270       -1.74165       -0.72480
