15

C	2.70822	-1.017133	0.331859
O	4.001068	-0.499443	0.385836
C	4.069874	0.858015	0.098746
C	5.492204	1.349736	0.184616
C	6.514408	0.541764	0.504422
C	5.672338	2.739471	-0.100707
C	5.781898	3.922437	-0.350604
H	2.763713	-2.087073	0.5764
H	2.258191	-0.909941	-0.675691
H	2.03236	-0.52468	1.059327
H	3.444458	1.452561	0.799811
H	3.679034	1.077182	-0.918888
H	6.323826	-0.511891	0.714712
H	7.535591	0.923087	0.56058
H	5.890226	4.968048	-0.572759
