15

C	1.018265	0.108036	0.047637
C	2.521321	0.000691	0.009478
O	3.108962	1.046337	0.764273
C	4.346638	0.568865	1.157804
O	4.196873	-0.819372	1.372259
C	3.118223	-1.230427	0.661466
C	2.715664	-2.49946	0.59006
H	0.562045	-0.703203	-0.537221
H	0.695524	1.066606	-0.382727
H	0.660375	0.043589	1.084675
H	2.880723	0.054817	-1.041471
H	5.119548	0.729085	0.374641
H	4.654588	1.055639	2.095239
H	1.825158	-2.758941	0.017861
H	3.264403	-3.289633	1.103337
