17

C	1.0381	-0.063576	0.002104
C	2.541553	-0.025671	-0.059558
C	3.277331	-0.596516	-1.239111
C	3.248409	0.891918	-1.01079
C	4.505347	1.614718	-0.607267
N	5.291205	1.958539	-1.775895
H	0.641994	0.73113	0.654581
H	0.675396	-1.02875	0.390853
H	0.59734	0.076704	-0.997493
H	3.038193	-0.164631	0.908682
H	2.686517	-1.006567	-2.064014
H	4.216574	-1.127725	-1.05382
H	2.613763	1.467002	-1.695104
H	5.039617	0.988568	0.142934
H	4.233565	2.548328	-0.083328
H	5.565576	1.109323	-2.267463
H	6.152259	2.429857	-1.508113
