12
-1231.06
N          0.94980        0.02437       -0.23469
N          2.34864        0.00059       -0.13362
C          3.14598        1.10454       -0.07049
C          4.45144        0.67483        0.04868
C          4.42779       -0.74184        0.04896
C          3.10862       -1.12837       -0.07004
H          0.55953        0.83698        0.23694
H          0.53284       -0.78103        0.22596
H          2.73170        2.10135       -0.12117
H          5.32314        1.31119        0.11905
H          5.27868       -1.40793        0.11964
H          2.66184       -2.11107       -0.12024
