17
-1645.18
C          1.20025       -0.22005       -0.53813
C          2.67910       -0.24480       -0.17751
C          3.13834        1.04729        0.50604
O          2.39696        1.23521        1.71075
C          4.61202        1.00517        0.79867
C          5.22481        1.70345        1.98651
O          4.97015        0.28905        1.99050
H          0.92056       -1.14975       -1.04411
H          0.97528        0.61370       -1.21056
H          0.57381       -0.12302        0.35400
H          3.26857       -0.41648       -1.08615
H          2.85599       -1.10004        0.48688
H          2.93196        1.90525       -0.14283
H          2.73285        0.56618        2.33625
H          5.22151        0.87061       -0.08544
H          4.59933        2.33120        2.60951
H          6.25742        2.02243        1.92012
