12

C	0.960569	-0.001771	0.063412
C	2.45084	-0.061473	-0.025452
C	3.18909	-1.173871	0.118049
C	3.111067	1.23783	-0.294709
O	2.512566	2.276821	-0.434842
C	4.589228	1.236549	-0.392669
N	5.742908	1.284713	-0.477533
H	0.649259	0.694473	0.857436
H	0.531396	-0.991648	0.264424
H	0.53482	0.39155	-0.872691
H	2.719929	-2.140252	0.319357
H	4.2802	-1.152691	0.039109
