17
-1759.05
C          1.01092       -0.22969       -0.00046
C          2.49344       -0.04354       -0.00087
C          3.13902        1.13799        0.00000
C          2.44382        2.47243        0.00257
C          4.54502        1.13799        0.00000
C          5.73518        1.13799        0.00000
C          7.17918        1.13799        0.00000
H          0.77057       -1.29757       -0.01174
H          0.55805        0.21969       -0.88924
H          0.56188        0.20043        0.89994
H          3.07736       -0.96478       -0.00166
H          1.35292        2.38931       -0.00028
H          2.73033        3.05123       -0.88274
H          2.72617        3.04539        0.89295
H          7.57319        2.15886       -0.01168
H          7.57320        0.61743       -0.87825
H          7.57320        0.63767        0.88994
