13
-1369.73
O          2.29503       -0.59184       -1.32101
C          2.33419       -0.07554        0.00207
C          2.82818        1.33328        0.00917
C          2.01895        2.45490        0.01626
S          2.90643        3.91675        0.03336
C          4.39297        3.07506        0.01373
C          4.21240        1.71016       -0.00036
H          1.95805       -1.50013       -1.25632
H          2.99310       -0.71171        0.60299
H          1.32610       -0.13405        0.42692
H          0.93774        2.48811        0.00935
H          5.32702        3.62007        0.00833
H          5.03596        1.00594       -0.02364
