19
-1844.46
C          2.00860       -1.62078       -0.29419
C          1.69292       -0.13687       -0.19565
C          2.90303        0.69956        0.13978
C          3.68730        0.39113        1.39103
C          2.86801        0.55671        2.66098
C          3.58247        1.47727       -0.97094
O          2.68004        2.10732       -0.05424
H          1.13324       -2.17189       -0.65200
H          2.28427       -2.03352        0.68149
H          2.83753       -1.80416       -0.98471
H          0.91172        0.02219        0.55584
H          1.26698        0.18916       -1.15323
H          4.56316        1.04886        1.45840
H          4.08024       -0.63036        1.33757
H          2.48299        1.57749        2.74959
H          3.48653        0.34762        3.53936
H          2.01551       -0.12874        2.68037
H          3.24515        1.34576       -1.99166
H          4.63414        1.71967       -0.88023
