18

C	1.508118	1.758391	1.469044
O	2.865183	1.448566	1.448564
C	3.48592	1.723283	0.226508
C	4.955013	1.395979	0.343497
C	5.803285	1.941171	-0.821765
N	6.133039	3.102854	0.003676
C	5.739311	2.389295	1.221221
H	1.11855	1.515935	2.468284
H	0.934427	1.175511	0.720328
H	1.322472	2.833953	1.272298
H	3.370178	2.793888	-0.04542
H	3.028323	1.127405	-0.592895
H	5.077201	0.331214	0.590358
H	5.276125	2.16918	-1.766856
H	6.655665	1.274571	-1.058433
H	7.08763	3.448195	-0.044115
H	6.569234	1.895652	1.763402
H	5.148938	2.974546	1.946953
