13

C	0.96323	-0.042787	0.02053
C	2.448894	0.061263	-0.017722
C	3.225193	1.194049	-0.137181
N	4.515967	0.730481	-0.11209
O	5.630459	1.486347	-0.267127
C	4.485177	-0.620278	0.001185
N	3.249002	-1.048693	0.066068
H	0.488725	0.94479	-0.060315
H	0.628791	-0.511832	0.95912
H	0.595409	-0.673173	-0.804059
H	2.998138	2.251241	-0.246407
H	5.875249	1.780942	0.621926
H	5.397956	-1.215619	0.02486
