17

C	0.81465	1.449501	-1.317559
C	2.279307	1.234556	-1.126641
C	2.996519	1.662502	-0.081258
C	4.469198	1.452698	0.095734
C	5.268675	2.74901	0.053601
N	5.015282	3.508272	-1.058335
N	6.145467	3.11947	0.904424
H	0.608494	1.982309	-2.261279
H	0.375863	2.031118	-0.493051
H	0.278656	0.487911	-1.380859
H	2.795706	0.664717	-1.911998
H	2.493041	2.232443	0.711477
H	4.850295	0.788276	-0.698706
H	4.672246	0.961786	1.060901
H	4.112637	3.402074	-1.502713
H	5.408427	4.441019	-1.047162
H	6.246608	2.416237	1.636015
