17
-1624.43
C          1.71623       -0.93861        0.25247
N          3.15926       -0.72706        0.24780
C          3.47513        0.67251       -0.06851
C          4.98586        0.88741       -0.04248
C          5.34141        2.31922       -0.37096
N          6.68127        2.58023       -0.35552
O          4.53392        3.19794       -0.64478
H          1.50256       -1.98169        0.50469
H          1.27852       -0.73287       -0.72973
H          1.22536       -0.31081        1.00293
H          3.57867       -1.33654       -0.45419
H          3.00111        1.33693        0.66464
H          3.07971        0.93326       -1.05819
H          5.47637        0.23598       -0.77575
H          5.38595        0.65153        0.95098
H          7.37383        1.89526       -0.08780
H          6.97859        3.52730       -0.55006
