14
-1411.95
C          0.95322       -0.01686        0.12306
C          2.45254        0.05971       -0.08753
O          2.74567        0.11038       -1.50997
C          3.20339        1.09218        0.80542
N          4.13223        0.01179        1.16695
C          3.29838       -0.97579        0.73049
O          3.31082       -2.15648        0.97497
H          0.69606       -0.07677        1.18595
H          0.53585       -0.90055       -0.37128
H          0.45751        0.86694       -0.29228
H          3.70291       -0.06338       -1.56861
H          2.65645        1.48488        1.66789
H          3.69814        1.90643        0.26972
H          4.61949       -0.14389        2.04014
