14
-1357.4
C          1.14782       -0.02297       -0.06244
N          2.48224       -0.03054        0.51783
C          3.29354       -1.16795        0.08419
C          4.68370       -0.68840        0.45250
C          4.43060        0.78132        0.49327
N          3.18566        1.13063        0.50596
H          0.63748       -0.97551        0.11713
H          1.18091        0.15984       -1.14207
H          0.53824        0.76236        0.39762
H          3.22781       -1.31980       -1.00020
H          3.02736       -2.09776        0.59538
H          5.43675       -0.93351       -0.29989
H          5.00982       -1.02142        1.44221
H          5.26337        1.49582        0.53276
