11

O	1.01811	0.019661	0.528945
C	2.173578	0.130072	0.241047
N	2.970748	1.301406	0.426828
C	4.113023	1.039358	-0.082686
N	4.29996	-0.205645	-0.727401
C	4.318376	-1.296213	0.247584
C	3.058169	-0.896186	-0.437067
H	4.966235	1.72603	-0.037911
H	4.824001	-2.211828	-0.073278
H	4.443656	-1.031616	1.304397
H	2.621664	-1.540799	-1.204658
