15

C	0.952813	0.007218	0.046329
C	2.481998	-0.019358	0.011069
C	2.984323	-0.826071	-1.206539
C	4.425422	-1.03107	-1.236664
C	5.623948	-1.200238	-1.253871
C	3.03602	1.33374	0.021624
C	3.480352	2.460017	0.027162
H	0.589788	0.568786	0.918545
H	0.548983	-1.015078	0.101121
H	0.551148	0.489646	-0.857921
H	2.847841	-0.531461	0.91918
H	2.664425	-0.314672	-2.130859
H	2.480183	-1.807213	-1.202689
H	6.687824	-1.348398	-1.268975
H	3.880004	3.456971	0.031688
