17

C	0.98478	2.418797	0.65775
C	2.265995	1.61305	0.674918
O	2.343209	0.545485	1.254997
N	3.305259	2.16102	-0.005326
C	4.608995	1.559412	-0.062379
C	5.68297	2.625657	0.084397
N	5.47961	3.668051	-0.908158
H	1.075403	3.394147	0.159896
H	0.653542	2.567095	1.694968
H	0.207254	1.827314	0.152591
H	3.23106	3.070843	-0.446945
H	4.752729	1.018635	-1.019356
H	4.673293	0.8061	0.736812
H	6.679355	2.139565	0.047295
H	5.587982	3.08101	1.08407
H	5.75795	3.342169	-1.832629
H	6.047525	4.486628	-0.706241
