17
-1628.06
C          1.01229       -0.01898       -0.10162
N          2.46671        0.01216       -0.07131
C          2.96070        1.38568        0.00000
C          4.40470        1.38568        0.00000
C          5.59486        1.38568        0.00000
C          7.03886        1.38568        0.00000
N          7.53922        2.74124       -0.18092
H          0.67099       -1.05791       -0.14694
H          0.61640        0.50342       -0.97866
H          0.58712        0.42719        0.80318
H          2.83513       -0.42253       -0.91592
H          2.59312        1.86783        0.91315
H          2.59151        1.96674       -0.85331
H          7.42172        0.74797       -0.80369
H          7.42233        0.98604        0.94436
H          7.19011        3.10338       -1.06627
H          8.55270        2.71196       -0.25956
