19

C	2.191114	-0.504189	-1.437526
C	2.437741	0.02141	-0.031881
C	3.263	1.29377	-0.005351
C	2.64008	2.591642	-0.572925
C	3.234109	3.375168	0.619598
O	4.401417	4.09373	0.336564
C	3.452433	2.026289	1.34141
H	1.580953	-1.420139	-1.42909
H	3.13955	-0.739726	-1.946725
H	1.664128	0.24174	-2.054586
H	2.942845	-0.749252	0.577202
H	1.472447	0.217698	0.4704
H	4.240604	1.095251	-0.481437
H	1.538162	2.560437	-0.543983
H	2.953954	2.935328	-1.570748
H	2.558638	4.088678	1.116228
H	5.027653	3.500719	-0.092835
H	4.414151	1.918005	1.867831
H	2.63973	1.79419	2.048485
