17
-1648.52
C          0.71180        2.27579        0.28004
C          2.19866        2.40096        0.18983
C          3.01616        1.34660        0.06637
O          4.37948        1.31705       -0.02352
C          5.06617        2.57502       -0.02537
C          6.56387        2.28725       -0.07897
O          6.89616        1.60738       -1.28715
H          0.36240        2.66358        1.24200
H          0.37631        1.23771        0.18688
H          0.24014        2.85832       -0.51775
H          2.58579        3.41372        0.23229
H          2.64320        0.32712        0.02735
H          4.83766        3.13513        0.88890
H          4.76733        3.14652       -0.91229
H          6.86845        1.64874        0.75577
H          7.13737        3.21756       -0.04244
H          6.26955        0.86194       -1.35475
