21

C	7.766204	0.280806	2.268714
C	6.664679	1.220076	1.8032
C	5.366076	0.499672	1.471588
C	4.263	1.430552	1.017215
O	3.119813	0.681364	0.728888
C	2.024738	1.444905	0.312627
C	0.865375	0.520995	0.024456
H	8.695337	0.824046	2.498334
H	8.000232	-0.470317	1.497414
H	7.466412	-0.265398	3.177611
H	7.008854	1.781168	0.915812
H	6.473112	1.980622	2.581192
H	5.006044	-0.061775	2.351076
H	5.536427	-0.249094	0.67913
H	4.591949	2.004938	0.123186
H	4.049788	2.182687	1.807947
H	2.283895	2.03476	-0.592983
H	1.746713	2.183282	1.09516
H	1.13416	-0.195992	-0.765364
H	-0.016945	1.089904	-0.303605
H	0.59793	-0.050402	0.925724
