15
-1426.12
C          1.67556       -0.12116        0.01245
C          0.71603       -1.21195        0.48850
O         -0.35635       -1.29622       -0.44770
N         -1.49904       -0.60380       -0.01249
C         -1.33911        0.66652        0.23169
C         -0.09757        1.53814        0.25674
N          1.02139        1.06424       -0.55066
H          2.30739       -0.53671       -0.78135
H          2.34496        0.16074        0.83340
H          1.22870       -2.17945        0.50786
H          0.34611       -1.01859        1.50362
H         -2.25706        1.18848        0.55428
H          0.19575        1.69816        1.30142
H         -0.40848        2.51592       -0.13165
H          1.71129        1.80492       -0.66408
