17

N	1.486344	-0.422435	-0.411781
C	2.76678	0.012301	0.039552
C	3.659943	-1.02979	0.647855
C	4.009193	-0.438781	-0.692701
N	4.954219	0.640042	-0.74379
C	4.237914	1.868052	-0.409393
C	3.038645	1.462867	0.466174
H	1.123547	0.19958	-1.132077
H	0.813656	-0.426106	0.352658
H	3.272043	-2.051676	0.653986
H	4.276835	-0.752518	1.509006
H	3.896167	-1.073716	-1.579096
H	5.736495	0.481661	-0.11562
H	4.911177	2.597911	0.067077
H	3.867974	2.340327	-1.338189
H	3.272932	1.534084	1.542435
H	2.151315	2.089667	0.282996
