20
-1917.42
C          2.84902       -1.01907       -0.35520
C          2.33892        0.28146        0.24695
C          3.38964        1.35129        0.20371
C          3.47419        2.28855       -0.97198
C          3.06286        2.82586        0.37812
C          1.63184        3.27196        0.55026
N          4.04291        3.64133        1.11533
H          2.07313       -1.78991       -0.31201
H          3.72656       -1.38693        0.18740
H          3.13713       -0.87979       -1.40279
H          2.05206        0.10766        1.28926
H          1.43550        0.58244       -0.29306
H          4.32271        0.99917        0.63413
H          2.72233        2.21599       -1.75058
H          4.45760        2.54000       -1.35436
H          0.95092        2.78597       -0.15526
H          1.54783        4.35209        0.38732
H          1.28596        3.05147        1.56559
H          4.99703        3.34517        0.91542
H          3.91736        3.52093        2.11989
