18
-1780.35
C          1.03501       -0.07012       -0.05125
C          2.52647        0.06503       -0.00923
C          3.43739       -0.58878       -1.09344
C          4.51460       -0.31108        0.00550
C          3.39148       -0.74335        1.00489
N          4.53876        1.16617        0.10673
C          3.10127        1.46909        0.10913
H          0.57516        0.33951        0.85426
H          0.73455       -1.12030       -0.13055
H          0.61425        0.46137       -0.91211
H          3.54712       -0.05437       -2.04291
H          3.24217       -1.64590       -1.31044
H          5.46479       -0.84145       -0.01603
H          3.19097       -1.82030        1.05587
H          3.45941       -0.35452        2.02613
H          4.96123        1.51195        0.96784
H          2.83559        2.10456       -0.74236
H          2.79787        1.96354        1.03872
