16

C	2.359602	-0.122466	1.454784
C	2.592698	0.385877	0.033727
C	2.953266	1.847248	-0.023949
C	2.087975	2.793097	-0.429547
C	4.294966	2.251895	0.391874
N	5.160817	1.384065	0.753548
O	6.354245	1.949063	1.089865
H	2.094963	-1.190954	1.447803
H	1.539271	0.427383	1.941437
H	3.264708	-0.000345	2.066506
H	1.690436	0.221612	-0.576314
H	3.407192	-0.195529	-0.42814
H	1.078055	2.534722	-0.758281
H	2.365895	3.851088	-0.448476
H	4.559228	3.321154	0.380714
H	6.899552	1.195358	1.338839
