14
-1365.5
C          1.16891       -0.05652        0.16961
C          2.65875        0.05477       -0.08646
O          3.19969        1.13918        0.67875
C          4.44938        0.63787        1.14774
C          4.16661       -0.82346        1.36334
O          3.31449       -1.16937        0.27111
H          0.73648       -0.88766       -0.39577
H          0.65609        0.87197       -0.09969
H          0.97270       -0.24393        1.23098
H          2.84870        0.24549       -1.14819
H          5.19735        0.79420        0.36284
H          4.76178        1.15872        2.05635
H          5.06666       -1.44463        1.36304
H          3.61104       -0.99266        2.29173
