17
-1724.9
C          1.01141        0.00951        0.01729
C          2.53242       -0.02499       -0.11732
O          2.87978       -1.18086       -0.92249
C          3.27216       -0.64464       -2.12879
C          3.39949        0.67617       -2.17088
C          3.09257        1.22688       -0.82446
C          4.35498        1.75659       -0.15078
H          0.68807        0.85524        0.63156
H          0.65079       -0.91657        0.47835
H          0.52553        0.08069       -0.96235
H          2.97216       -0.16211        0.87771
H          3.46002       -1.36503       -2.90722
H          3.71455        1.25092       -3.02850
H          2.34816        2.02864       -0.87863
H          5.13133        0.98631       -0.07403
H          4.13063        2.10779        0.86198
H          4.77375        2.59815       -0.71391
