18
-1773.82
C          0.88871        0.13276       -0.03333
C          2.42289        0.02664        0.01926
N          2.76772       -0.79942        1.17647
C          2.90488       -0.72913       -1.20341
C          3.77539       -0.33566       -2.14523
C          2.99450        1.42964        0.12450
C          3.78045        1.94976        1.08108
H          0.55665        0.69337       -0.91625
H          0.48925        0.64601        0.85028
H          0.41377       -0.85549       -0.08069
H          2.44301       -0.33386        2.02028
H          3.78252       -0.84979        1.23864
H          2.48192       -1.72914       -1.31053
H          4.26193        0.63334       -2.12349
H          4.02982       -0.99764       -2.96781
H          2.71245        2.09385       -0.69375
H          4.12011        1.38003        1.93853
H          4.10954        2.98288        1.01746
