18
-1666.22
N          1.43702       -0.54958        1.53772
C          2.68471       -0.27179        0.81453
C          2.90662        1.23961        0.60079
C          2.98957        2.00708        1.92808
O          1.75482        1.96621        2.63232
C          4.18717        1.48545       -0.20445
O          4.09812        0.85358       -1.47455
H          1.34757       -1.56232        1.64788
H          0.65269       -0.28214        0.93691
H          2.64809       -0.79529       -0.14701
H          3.51950       -0.69445        1.38507
H          2.05025        1.61528        0.02373
H          3.22639        3.06094        1.75123
H          3.76841        1.59257        2.57704
H          1.45526        1.02996        2.58793
H          5.06467        1.08943        0.31832
H          4.33548        2.55789       -0.37015
H          4.90066        1.09172       -1.97127
