15
-1522.6
O          2.32915       -0.27697        1.47900
C          2.51954       -0.02221        0.09669
C          2.92385        1.39151       -0.07124
C          4.00426        1.87525       -0.67399
O          4.13457        3.24490       -0.69462
C          2.94697        3.72300       -0.02676
C          2.12310        2.52562        0.44466
H          2.13033       -1.22423        1.56304
H          1.58030       -0.21703       -0.43002
H          3.28476       -0.70664       -0.28392
H          4.80774        1.34017       -1.15296
H          2.38067        4.34155       -0.73227
H          3.25014        4.35686        0.81390
H          1.11423        2.54908        0.02118
H          2.04321        2.51144        1.53618
