16

C	1.079911	0.143079	0.02971
C	2.582822	-0.086215	-0.076547
C	2.958311	-0.88836	-1.317966
C	3.320004	1.230473	-0.069951
C	3.878513	1.814138	1.14996
O	4.705044	1.183452	0.194508
H	0.817154	0.691759	0.947813
H	0.533835	-0.812197	0.038016
H	0.708457	0.728016	-0.828449
H	2.924228	-0.645702	0.812823
H	2.637961	-0.366869	-2.235684
H	2.47799	-1.878346	-1.313013
H	4.047556	-1.033169	-1.371808
H	3.039141	1.918523	-0.884735
H	3.757188	1.279614	2.102336
H	3.992956	2.902724	1.240336
