11

N	0.999146	-0.034899	-0.277605
C	2.148039	-0.014527	-0.142263
C	3.598739	0.011705	0.023449
C	4.19276	-1.250807	0.681825
O	4.868461	-0.780687	1.856891
N	4.743164	0.559693	1.980591
C	4.063323	1.048921	1.024153
H	4.038754	0.20855	-0.969809
H	4.927182	-1.750075	0.033276
H	3.421227	-1.974938	0.981919
H	3.860044	2.119512	0.972504
