17
-1667.61
C          1.08603       -0.28808        0.08855
C          2.60662       -0.25840        0.07217
N          3.07788        1.12768        0.08921
C          4.54514        1.18176        0.07761
C          5.03809        2.63034        0.03636
C          6.50557        2.67126        0.02521
N          7.66592        2.69860        0.02319
H          0.72957       -1.32313        0.06466
H          0.67053        0.23138       -0.78179
H          0.68858        0.18412        0.99291
H          2.96193       -0.76901       -0.82978
H          2.98532       -0.80289        0.94528
H          2.71655        1.59312        0.92264
H          4.92744        0.64733       -0.80203
H          4.94445        0.67941        0.96739
H          4.66437        3.17924        0.90946
H          4.64901        3.13575       -0.85467
