22

C	1.249964	-0.406742	-0.157606
N	2.649735	-0.079469	-0.07335
C	2.927791	1.337283	-0.11256
C	4.422178	1.607609	-0.045438
C	4.819759	3.079849	0.075342
C	6.320024	3.207301	0.319184
C	4.400783	3.903532	-1.139707
H	1.113573	-1.499039	-0.163723
H	0.728515	0.008253	-1.05015
H	0.719885	-0.018223	0.72853
H	3.1653	-0.548815	-0.814794
H	2.435819	1.809641	0.758875
H	2.486486	1.83386	-1.007682
H	4.911901	1.178803	-0.941868
H	4.821868	1.045658	0.815662
H	4.297596	3.491313	0.960516
H	6.890865	2.800298	-0.532633
H	6.631608	2.656243	1.220333
H	6.619584	4.259147	0.447147
H	4.87056	3.509522	-2.056998
H	4.713569	4.954085	-1.033551
H	3.311426	3.897433	-1.294607
