17

C	1.163298	-0.128534	0.571096
N	2.596056	-0.050157	0.443367
C	3.07446	1.204603	-0.084099
C	4.596791	1.226483	-0.171694
C	5.136782	2.553967	-0.597692
C	5.869969	2.780146	-1.688585
H	0.868719	-1.122875	0.940169
H	0.601037	0.064283	-0.370263
H	0.811688	0.609424	1.311794
H	2.939034	-0.817328	-0.130553
H	2.740013	2.011739	0.593463
H	2.647337	1.456875	-1.082737
H	4.941119	0.441994	-0.868412
H	4.990122	0.958837	0.824921
H	4.885705	3.40178	0.054165
H	6.144172	1.968035	-2.370543
H	6.229338	3.781547	-1.939677
