15

C	0.870375	-0.153859	0.143248
C	2.350535	0.013642	0.137367
C	3.054437	1.146084	-0.051468
C	2.483934	2.513822	-0.251443
C	4.554759	1.123601	0.036659
O	5.167158	-0.033086	-0.27097
O	5.195919	2.083768	0.365184
H	0.565024	-0.904145	-0.605193
H	0.330207	0.777278	-0.069304
H	0.527652	-0.534586	1.119883
H	2.909631	-0.907298	0.352786
H	1.39115	2.537778	-0.158256
H	2.758933	2.908792	-1.242931
H	2.925867	3.200098	0.486092
H	4.522667	-0.642217	-0.651034
