12
-1328.29
C          1.12336       -0.10092       -0.37707
C          2.34963        0.28289        0.01408
C          3.59913       -0.53691       -0.14213
C          4.38924       -0.06777       -1.28933
N          4.99985        0.27316       -2.21780
C          2.48940        1.59469        0.69530
O          3.55431        1.96590        1.17163
H          0.24289        0.51906       -0.23153
H          0.96397       -1.05670       -0.86937
H          3.33852       -1.59183       -0.29341
H          4.19803       -0.50559        0.77520
H          1.57546        2.20847        0.76455
