19
-1841.38
C          2.91427       -0.89541       -1.02041
C          2.45851       -0.01558        0.13514
C          3.06346        1.39963        0.09583
C          2.43302        2.26030        1.19547
C          4.55936        1.36093        0.27103
C          5.49070        1.52657       -0.90453
O          5.21827        2.60667       -0.00307
H          2.39741       -1.86013       -0.98345
H          3.98948       -1.09362       -0.97363
H          2.68919       -0.42723       -1.98418
H          2.71349       -0.51074        1.08013
H          1.36482        0.05750        0.09908
H          2.81568        1.85840       -0.87028
H          2.65275        1.85728        2.18986
H          1.34585        2.31037        1.07771
H          2.82128        3.28350        1.16002
H          4.89200        0.80180        1.13522
H          5.07535        1.59560       -1.90248
H          6.46935        1.06909       -0.85303
