19

C	0.429619	0.223299	-0.384766
C	1.731024	0.010504	0.375206
C	2.569016	1.272048	0.538605
C	1.914066	2.340302	1.403552
O	2.771502	3.423186	1.594789
O	3.803876	1.001092	1.177255
C	4.81019	0.490641	0.35446
H	-0.090832	-0.731226	-0.552063
H	0.611732	0.677431	-1.372273
H	-0.26417	0.882337	0.15927
H	2.338723	-0.745376	-0.149261
H	1.533802	-0.401732	1.379582
H	2.771673	1.719015	-0.4581
H	1.610818	1.870578	2.363971
H	0.998566	2.710105	0.916969
H	3.623028	3.022505	1.817641
H	5.718808	0.385571	0.964402
H	5.030765	1.167526	-0.493922
H	4.560085	-0.504427	-0.057995
