12
-1348.33
N          0.86655        0.04527       -0.10867
C          2.02702        0.03174       -0.08153
C          3.55987        0.01310       -0.04407
C          4.76063       -0.00485       -0.01097
C          6.19227       -0.03046        0.03707
C          6.94043       -0.75043       -1.05410
C          6.96854        0.74915       -0.99156
H          6.62327       -0.07968        1.03368
H          6.38079       -1.21313       -1.85947
H          7.84101       -1.28804       -0.77954
H          7.88885        1.22720       -0.67520
H          6.42790        1.29826       -1.75448
