15
-1551.72
O          2.53734       -0.53177       -1.46837
C          2.28235       -0.14481       -0.12192
C          2.91969        1.21406        0.16632
C          4.42263        1.13889        0.18827
C          5.17689        1.45915        1.24910
C          6.59323        1.37329        1.20097
C          7.79103        1.30382        1.16176
H          2.16252       -1.42156       -1.58413
H          2.67070       -0.91824        0.54930
H          1.19721       -0.08021        0.00771
H          2.54239        1.58929        1.12477
H          2.62773        1.93149       -0.60965
H          4.89514        0.80740       -0.73564
H          4.72319        1.79676        2.17587
H          8.85372        1.24262        1.12213
