21

C	2.517053	-0.85131	1.253156
C	2.502943	-0.066281	-0.03091
C	1.901727	-0.575727	-1.114095
C	3.193555	1.300382	-0.024299
C	3.017131	2.039912	-1.35197
C	2.604978	2.174543	1.09432
C	4.699259	1.109033	0.223051
H	3.539748	-0.997081	1.634839
H	2.065216	-1.842862	1.114357
H	1.954608	-0.335993	2.048292
H	1.430124	-1.561621	-1.077396
H	1.850089	-0.048954	-2.068485
H	3.459338	1.481545	-2.190871
H	3.517391	3.019226	-1.305064
H	1.954428	2.216048	-1.578497
H	2.785208	1.747658	2.092013
H	1.518183	2.299682	0.967001
H	3.066733	3.174158	1.077222
H	4.904327	0.651991	1.202683
H	5.214825	2.082116	0.202257
H	5.147038	0.468504	-0.552584
