19

N	1.005309	0.019476	0.050291
C	2.460258	0.013578	0.03835
C	2.959218	-1.321968	-0.523841
C	2.613617	-1.467819	-2.006719
N	3.081413	-0.362174	-2.822642
C	2.623418	0.920089	-2.319197
C	2.966129	1.157448	-0.847164
H	0.655758	0.895802	0.432745
H	0.650844	-0.721818	0.651271
H	2.898225	0.144846	1.051971
H	2.535859	-2.159415	0.059004
H	4.054815	-1.37267	-0.391555
H	3.023784	-2.408715	-2.408107
H	1.517113	-1.526679	-2.110502
H	4.099936	-0.371205	-2.857359
H	3.042831	1.722753	-2.94719
H	1.527727	0.960541	-2.439099
H	4.061554	1.236002	-0.730051
H	2.545052	2.118108	-0.500045
