20
-1915.83
C          2.26628       -0.47754       -1.45736
C          2.43919        0.03810       -0.03783
C          3.28215        1.30611       -0.02725
C          2.62288        2.60645       -0.56451
C          3.21890        3.37062        0.63334
N          4.52673        3.91307        0.25959
C          3.40887        2.01756        1.34737
H          1.67766       -1.39989       -1.45816
H          3.23632       -0.68966       -1.91853
H          1.75068        0.25683       -2.08431
H          2.92847       -0.73396        0.56697
H          1.45384        0.22104        0.40619
H          4.26883        1.12445       -0.47763
H          1.52553        2.58493       -0.54718
H          2.93770        2.91796       -1.56554
H          2.55654        4.08806        1.12326
H          5.14465        3.26350       -0.22480
H          5.05975        4.26994        1.05071
H          4.35321        1.85812        1.87717
H          2.59013        1.78885        2.04139
