17

C	1.076421	-0.596778	0.044319
C	2.381883	0.107896	0.203526
C	2.615528	1.436101	0.198168
C	1.563887	2.486996	0.023013
N	3.925359	1.901507	0.366298
C	4.372395	3.198419	0.403938
N	5.564117	3.616919	0.567813
H	1.08609	-1.264002	-0.835139
H	0.226685	0.089373	-0.076676
H	0.858256	-1.236619	0.917002
H	3.252982	-0.546023	0.342912
H	0.574852	2.036984	-0.111118
H	1.770351	3.115962	-0.858088
H	1.51465	3.154303	0.899281
H	4.631676	1.183713	0.490194
H	3.578099	3.946164	0.272261
H	6.22248	2.837956	0.680967
