18
-1755.19
C          0.65285       -0.37542        0.40883
C          2.16674       -0.36959        0.26210
C          2.70603        1.05249        0.10276
N          4.16131        1.01418       -0.02382
C          4.71266        2.35609       -0.18487
C          6.16923        2.27078       -0.35105
C          7.36082        2.20021       -0.48695
H          0.28730       -1.40063        0.52397
H          0.17167        0.05989       -0.47281
H          0.34169        0.19695        1.28855
H          2.44294       -0.97791       -0.60780
H          2.61290       -0.84423        1.14457
H          2.42164        1.64855        0.97806
H          2.25813        1.51641       -0.78435
H          4.42372        0.45243       -0.83272
H          4.48379        2.96734        0.69553
H          4.27651        2.84945       -1.06134
H          8.41779        2.13107       -0.60086
