18
-1717.96
C          3.06321       -0.26148        0.73475
O          2.29649        0.89280        0.41257
C          2.95525        2.07615        0.13576
C          1.97128        3.17514       -0.15984
C          4.29598        2.22948        0.13092
C          5.08722        3.46566       -0.15610
N          5.94658        3.76078        0.98225
H          2.36722       -1.08241        0.93122
H          3.65520       -0.09927        1.64117
H          3.69986       -0.55530       -0.10582
H          1.36073        3.37408        0.72728
H          1.30262        2.86596       -0.97072
H          2.43009        4.11685       -0.46374
H          4.93354        1.37630        0.34759
H          4.47088        4.33958       -0.37362
H          5.71321        3.28469       -1.03676
H          5.35839        3.99031        1.78281
H          6.48427        4.60192        0.78103
