15

C	1.181862	-0.640422	-0.45539
C	2.613929	-0.343758	-0.101864
O	3.410651	-1.212647	0.165759
C	3.014561	1.115324	-0.09006
N	4.308365	1.274478	0.484215
N	4.913178	2.4481	0.359771
C	6.154688	2.559792	0.63358
H	0.804852	0.030941	-1.241324
H	0.557341	-0.481063	0.4394
H	1.086442	-1.688521	-0.765442
H	2.244461	1.697364	0.450947
H	2.964421	1.465646	-1.143287
H	4.851876	0.412622	0.573296
H	6.61489	3.547218	0.54446
H	6.779814	1.710406	0.961277
