14
-1448.7
C          1.10363       -0.18533       -0.18416
O          2.52213       -0.17178       -0.09051
C          3.02998        1.15902        0.02418
C          4.53597        1.16738        0.12728
C          5.30647        0.06428        0.11645
C          5.15749        2.44948        0.24322
N          5.64563        3.49587        0.33654
H          0.77456       -1.22419       -0.27205
H          0.77269        0.36234       -1.07181
H          0.65611        0.24805        0.71544
H          2.60174        1.62699        0.91918
H          2.72269        1.73355       -0.85837
H          4.87065       -0.92717        0.02983
H          6.38909        0.11776        0.19332
