20
-1906.02
C          2.79272       -1.46761        0.77916
C          2.24726       -0.12079        1.24419
N          2.98985        1.03678        0.71022
C          2.24507        2.26484        1.02312
C          4.35591        1.10153        1.25416
C          5.18286        2.17422        0.60090
C          5.83263        3.14159        1.26227
H          2.10022       -2.26584        1.06510
H          3.75879       -1.69765        1.23615
H          2.90423       -1.49499       -0.30916
H          2.21303       -0.09588        2.34131
H          1.20817       -0.06766        0.89288
H          1.22661        2.20997        0.62201
H          2.70233        3.14146        0.55303
H          2.17904        2.44250        2.10244
H          4.88489        0.16363        1.05055
H          4.33768        1.22663        2.34481
H          5.24602        2.13704       -0.48476
H          5.79798        3.21519        2.34397
H          6.41303        3.88611        0.72468
