12
-1237.84
C          0.96990        0.14434       -0.29950
C          2.29274        0.15695       -0.09461
C          3.11048        1.37392       -0.10921
N          4.38144        1.43994        0.08135
O          4.70790        2.80557       -0.02726
C          3.48031        3.47651       -0.29714
O          2.44396        2.52053       -0.34714
H          0.41886       -0.79041       -0.27627
H          0.40474        1.05061       -0.49354
H          2.83558       -0.76245        0.09748
H          3.55320        3.99636       -1.25719
H          3.27946        4.20135        0.49753
