13

C	3.145688	-1.202042	0.376297
N	2.53266	-0.005836	-0.122887
C	3.151834	1.211426	-0.103956
N	2.456646	2.308023	-0.341374
S	3.459419	3.627036	-0.296576
C	4.868707	2.730807	0.063672
C	4.556692	1.401416	0.145506
H	2.453	-2.044513	0.244898
H	3.415601	-1.147568	1.448885
H	4.061144	-1.449569	-0.187295
H	1.523738	0.039959	-0.169726
H	5.844885	3.197238	0.200001
H	5.271786	0.610442	0.366305
