13

C	1.02888	0.004256	0.249425
C	2.502543	-0.015638	-0.115951
N	3.377333	0.973519	0.542133
C	4.049549	-0.029298	1.378275
C	3.313699	-1.108884	0.587869
O	3.336328	-2.300561	0.54575
H	0.513798	-0.866984	-0.182114
H	0.543616	0.91291	-0.140575
H	0.889791	-0.020915	1.342388
H	2.618404	-0.029625	-1.21663
H	2.887158	1.704438	1.049358
H	5.151992	-0.047915	1.307909
H	3.773238	-0.048573	2.450814
