17

C	0.802722	-0.247868	0.2674
C	2.28599	-0.087895	0.212242
C	2.990374	1.019253	-0.068139
C	2.407886	2.359294	-0.398086
C	4.505927	0.968973	-0.046425
C	5.122758	1.301843	-1.328142
C	5.622748	1.58093	-2.395792
H	0.466917	-1.018802	-0.446543
H	0.257778	0.678211	0.040358
H	0.482434	-0.588625	1.266535
H	2.857442	-0.999456	0.431109
H	1.310629	2.355065	-0.426505
H	2.775849	2.706008	-1.377531
H	2.72674	3.113398	0.342212
H	4.845488	-0.031509	0.266969
H	4.884542	1.677305	0.714572
H	6.067116	1.825376	-3.342642
