15

N	0.896395	-0.057919	0.122917
C	2.173203	0.039091	0.062372
N	2.920996	1.183005	0.272233
C	4.270348	1.280166	-0.245897
C	5.076757	0.054532	0.15463
C	4.300534	-1.193926	-0.134021
C	2.96227	-1.18104	-0.19305
H	0.469035	0.852815	0.317812
H	2.387542	2.04411	0.287715
H	4.735624	2.193714	0.153751
H	4.277286	1.366109	-1.352176
H	5.318104	0.092485	1.23327
H	6.040081	0.051326	-0.37877
H	4.845961	-2.133125	-0.270942
H	2.372314	-2.078472	-0.385423
