17
-1591.64
N          1.07731        0.13829       -0.35514
C          2.52839        0.03289       -0.13583
C          3.35196       -0.72581       -1.13220
C          3.46721        0.78016       -1.07128
N          2.84051        1.55952       -2.18262
C          4.72496        1.38833       -0.48057
O          5.49877        1.96122       -1.53172
H          0.70780        0.94882        0.14348
H          0.59973       -0.67263        0.03907
H          2.82774       -0.04885        0.90665
H          2.84920       -1.17631       -1.98002
H          4.17697       -1.32208       -0.75955
H          1.82611        1.42734       -2.08797
H          3.06490        1.10441       -3.06923
H          5.34089        0.65027        0.04237
H          4.46399        2.18570        0.22282
H          4.82680        2.37332       -2.11139
