15

C	1.230383	-0.433698	-0.439956
C	2.712612	-0.349181	-0.188414
O	3.096035	1.027441	-0.317759
S	4.680271	1.320851	-0.093927
C	4.61113	3.066783	-0.366398
O	5.017623	1.04892	1.291572
O	5.430691	0.682801	-1.160192
H	0.894393	-1.477217	-0.351853
H	0.98583	-0.073852	-1.449877
H	0.675135	0.173334	0.289386
H	3.283442	-0.94817	-0.917363
H	2.973838	-0.697803	0.824616
H	4.245882	3.244995	-1.384527
H	5.63859	3.434194	-0.24966
H	3.949425	3.510732	0.386423
