15

C	1.270867	0.473063	-0.471315
O	2.648648	0.377377	-0.163695
C	3.36449	1.49736	-0.348537
O	2.882163	2.528303	-0.750231
C	4.783556	1.282646	0.00143
C	5.670796	2.277753	-0.121019
C	7.120007	2.189676	0.195708
H	0.837697	-0.513601	-0.267675
H	1.120425	0.74369	-1.527556
H	0.7801	1.238746	0.148526
H	5.066456	0.28841	0.358132
H	5.28429	3.237275	-0.48783
H	7.408591	1.191161	0.553864
H	7.394828	2.931067	0.964734
H	7.727448	2.431342	-0.692685
