13
-1314.63
N          2.81948       -0.69953       -1.33480
C          2.38294       -0.04066       -0.10049
C          2.88705        1.37313       -0.04832
N          2.00458        2.36275        0.11894
S          2.80636        3.81172        0.14981
C          4.37285        3.15168       -0.02371
C          4.26268        1.78164       -0.11636
H          2.41836       -1.63458       -1.36391
H          3.82890       -0.81845       -1.31695
H          2.75660       -0.59699        0.76611
H          1.28769       -0.06003       -0.05880
H          5.25641        3.77304       -0.05004
H          5.10386        1.11351       -0.23454
