13

C	1.701273	-0.481032	0.158586
O	0.851914	-1.627641	0.070703
C	-0.174503	-0.879834	-0.591101
C	-1.392672	-0.560261	0.228196
N	-1.341565	0.599981	0.773513
N	-0.151223	1.196187	0.508172
C	0.630883	0.433905	-0.447959
H	2.615252	-0.595861	-0.452221
H	1.979774	-0.229614	1.195323
H	-0.398239	-1.295692	-1.589091
H	-2.268875	-1.197135	0.361787
H	-0.218615	2.202639	0.421701
H	0.909325	1.013488	-1.341229
