14
-1396.67
C          3.59529       -1.18912       -0.61136
O          4.48683       -0.07715       -0.67425
C          4.28792        0.83925        0.31208
O          3.41612        0.79746        1.16921
C          5.24399        1.96837        0.20046
C          5.68932        2.71822        1.42956
N          6.57244        1.74420        0.80478
H          3.85061       -1.87493       -1.42397
H          2.56092       -0.85902       -0.74977
H          3.70902       -1.72113        0.33842
H          5.23626        2.49355       -0.74662
H          5.26788        2.43618        2.38766
H          5.95894        3.76183        1.33015
H          7.29537        2.20184        0.24765
