6
-564.21
C          0.98916        0.00010        0.00000
C          2.32492       -0.00017       -0.00000
H          0.42941        0.93014        0.00000
H          0.42907       -0.92985        0.00000
H          2.88500        0.92980       -0.00000
H          2.88467       -0.93020        0.00000
