15
-1423.24
C          1.10934        0.11853        0.44994
C          2.28278        0.11148       -0.51546
N          2.93697       -0.98890       -0.78519
O          2.42098       -2.08897       -0.09059
N          2.57703        1.36072       -1.06399
C          3.06026        1.38735       -2.45364
C          3.99323        1.66375       -1.32406
H          0.69214        1.12505        0.54764
H          1.44234       -0.21804        1.43587
H          0.32565       -0.54925        0.08075
H          2.99949       -2.81443       -0.38962
H          2.66353        2.21878       -3.01771
H          3.10172        0.42973       -2.95377
H          4.69879        0.90285       -1.02030
H          4.24922        2.68863       -1.09778
