19
-1918.71
C          1.46252       -0.22499       -0.44256
C          2.82720        0.06302        0.10056
C          3.63198       -1.07104        0.69278
C          4.04934       -0.45003       -0.61205
C          5.07173        0.64915       -0.65473
C          4.25840        1.92229       -0.39947
C          3.11842        1.48409        0.52856
H          1.12976        0.57625       -1.10954
H          0.74325       -0.30837        0.37760
H          1.43922       -1.16121       -1.00975
H          3.21530       -2.07218        0.66403
H          4.22906       -0.87879        1.57728
H          3.94156       -1.00325       -1.53361
H          5.82465        0.50502        0.12809
H          5.58303        0.69446       -1.62106
H          4.86133        2.73047        0.02399
H          3.83594        2.27620       -1.34847
H          3.44030        1.51027        1.57568
H          2.25344        2.14633        0.42346
