13

C	0.956278	-0.006864	-0.029629
C	2.448052	0.045327	0.001614
N	3.082094	1.191907	0.075991
S	4.716167	0.94386	0.075476
C	4.60518	-0.766701	-0.013049
C	3.279199	-1.131752	-0.051596
N	2.756596	-2.407717	-0.194176
H	0.546719	1.0103	-0.04324
H	0.552589	-0.52865	0.855553
H	0.601978	-0.548828	-0.921888
H	5.480761	-1.415156	-0.038872
H	3.401828	-3.160091	0.011569
H	1.865629	-2.552574	0.266397
