16
-1661.29
C          0.83558       -0.17289       -0.10520
C          2.35544       -0.06191        0.01046
C          3.03831       -0.82595       -1.12339
C          2.77560        1.38719       -0.01002
C          3.42151        1.99107        1.00035
C          3.80269        3.35924        0.94750
N          4.11595        4.47619        0.90882
H          0.34011        0.35534        0.71706
H          0.52025       -1.22115       -0.06572
H          0.47062        0.25251       -1.04700
H          2.65726       -0.52345        0.95942
H          2.75898       -0.42596       -2.10479
H          2.75802       -1.88460       -1.10009
H          4.12887       -0.76792       -1.03429
H          2.52935        1.95543       -0.90748
H          3.67772        1.44796        1.90327
