20
-1915.66
C          3.07330       -0.65482       -1.09005
C          2.53064       -0.00560        0.17603
C          3.11850        1.39030        0.43234
N          2.49504        1.98299        1.61555
C          4.59996        1.34873        0.70098
C          5.58104        1.75138       -0.37453
C          5.39561        2.62709        0.83014
H          2.57270       -1.61300       -1.26400
H          4.14682       -0.85127       -1.01033
H          2.90052       -0.01868       -1.96378
H          2.73203       -0.67028        1.02585
H          1.43977        0.06862        0.08211
H          2.90424        2.03921       -0.42540
H          2.65700        1.38226        2.42172
H          1.48565        2.01504        1.48510
H          4.88147        0.53481        1.36105
H          5.20106        2.11740       -1.32189
H          6.50419        1.18925       -0.45590
H          6.18464        2.65381        1.57246
H          4.87157        3.56840        0.70842
