13
-1303.56
O          1.09716       -0.22132       -0.57251
N          2.40085       -0.07061       -0.13248
C          2.96677        1.15886        0.03631
C          4.23796        1.24295        0.44383
C          5.04442       -0.00286        0.71501
N          4.35390       -1.29132        0.46996
C          3.12884       -1.21585        0.07136
H          0.59992       -0.29174        0.26238
H          2.34067        2.01448       -0.18520
H          4.71795        2.20588        0.57892
H          5.94343        0.02124        0.08918
H          5.37292        0.01283        1.76009
H          2.56057       -2.13815       -0.13464
