19
-1899.39
C          0.81344        1.00215        0.92218
C          1.80265        0.71854       -0.19647
C          3.14619        1.31418        0.09552
C          4.00554        1.82452       -1.02984
C          3.37870        2.79853       -0.06458
C          4.23145        3.47588        0.91463
C          3.83328        3.91614        2.11655
H         -0.14303        0.51112        0.71899
H          0.63071        2.07745        1.01875
H          1.19005        0.63912        1.88389
H          1.39856        1.10255       -1.14049
H          1.91570       -0.36536       -0.31409
H          3.64563        0.79823        0.90953
H          3.61278        1.79943       -2.04048
H          5.07219        1.63760       -0.97391
H          2.56148        3.40451       -0.44522
H          5.27029        3.63830        0.63371
H          2.80950        3.78838        2.45085
H          4.52836        4.41221        2.78602
