16
-1582.2
C          1.01161        0.01361       -0.03787
C          2.53275       -0.05214       -0.06339
C          3.06962       -1.26048       -0.79417
C          3.29983       -0.62951       -2.11552
C          3.56308       -1.44875       -3.33250
N          3.30373        0.66305       -2.11935
O          3.04001        1.07726       -0.78970
H          0.68125        0.93428        0.45470
H          0.58883       -0.84093        0.49904
H          0.59386        0.03339       -1.05034
H          2.91618       -0.01282        0.96168
H          2.37884       -2.10445       -0.83989
H          4.03509       -1.58552       -0.39457
H          3.69705       -0.80558       -4.20614
H          2.71823       -2.12058       -3.50683
H          4.46803       -2.04294       -3.18025
