15

O	1.846739	-0.575048	1.057584
C	2.151419	0.130501	-0.113261
C	3.22843	1.127249	0.210689
O	3.41385	2.164083	-0.718717
C	2.906845	2.516415	0.56529
C	3.791517	3.322058	1.425995
C	3.359125	4.267146	2.262295
H	1.272439	-1.311705	0.831002
H	1.282007	0.679386	-0.528216
H	2.526444	-0.533085	-0.919344
H	4.147846	0.687203	0.625193
H	1.843908	2.798489	0.575215
H	4.860816	3.093964	1.345431
H	2.295047	4.5113	2.344242
H	4.048356	4.828772	2.897134
