15
-1434.55
C          1.28625        0.18650        0.33474
N          2.73577        0.06094        0.15054
C          3.35063       -1.18464        0.23537
C          2.81631       -2.38721        0.47504
C          3.44452        1.21138       -0.17601
N          2.98465        2.41272       -0.33089
O          4.04261        3.27102       -0.65712
H          0.95416        1.22723        0.41230
H          0.96928       -0.30962        1.25936
H          0.75807       -0.27021       -0.50970
H          4.42730       -1.13338        0.07489
H          1.75563       -2.53118        0.64139
H          3.44712       -3.26997        0.50674
H          4.52533        1.01693       -0.30879
H          3.59145        4.13084       -0.74658
