16

C	0.94519	0.032978	-0.166326
C	2.440032	0.008468	0.152755
C	3.165529	1.293229	-0.244836
C	3.576353	1.168898	-1.696692
O	4.447345	0.070002	-1.896399
N	4.055465	-1.129237	-1.386449
C	3.13558	-1.155084	-0.499678
H	0.436535	0.808975	0.426149
H	0.468764	-0.933497	0.060275
H	0.767738	0.244819	-1.23237
H	2.544311	-0.146596	1.241631
H	2.527653	2.17864	-0.094613
H	4.070001	1.428893	0.369021
H	4.133887	2.044437	-2.057108
H	2.683884	1.0392	-2.339612
H	2.883243	-2.168814	-0.164429
