12

C	0.604595	0.340613	-0.018914
C	1.93333	0.171439	-0.165404
N	2.501914	-1.081408	-0.400155
C	3.828739	-1.382473	-0.563257
O	4.233691	-2.500141	-0.764316
C	2.825671	1.29172	-0.085049
C	3.558934	2.254451	-0.013113
H	0.195448	1.332737	0.16465
H	-0.08287	-0.506339	-0.079391
H	1.872442	-1.875949	-0.462287
H	4.484808	-0.48679	-0.48937
H	4.204999	3.111219	0.051295
