12

C	0.686132	-1.203815	0.543332
O	-0.547281	-1.461564	-0.11106
N	-1.550091	-0.545877	-0.018143
C	-1.231309	0.68728	0.090617
C	0.157177	1.200177	0.113034
O	0.998692	0.738458	-0.94556
C	1.194866	0.192535	0.327662
H	1.375954	-1.95941	0.140656
H	0.581507	-1.371801	1.633822
H	-2.078978	1.377846	0.142521
H	0.31163	2.242916	0.412336
H	2.129221	0.460255	0.842272
