12
-1334.22
N          1.00000        0.00000        0.00000
C          2.15101        0.00000        0.00000
C          3.55701        0.00000        0.00000
C          4.33572       -1.07227       -0.08724
O          5.69482       -0.83179       -0.09943
C          5.77698        0.60238       -0.26252
C          4.41551        1.20244        0.07975
H          4.06050       -2.11338       -0.13259
H          6.04815        0.80849       -1.30600
H          6.57059        0.99402        0.38075
H          4.13898        1.99014       -0.62708
H          4.41061        1.61822        1.09296
