17
-1595.62
C          0.85662        0.18935       -0.29002
C          2.28409       -0.22859        0.02599
N          3.16271        0.94305       -0.01162
N          4.50106        0.59706        0.27264
C          4.93906        0.42293        1.64428
C          5.40195        0.46669       -0.77247
O          6.58933        0.18020       -0.66124
H          0.19539       -0.68304       -0.27096
H          0.78770        0.64292       -1.28463
H          0.48243        0.91159        0.44353
H          2.61176       -0.96989       -0.71189
H          2.31004       -0.70045        1.01496
H          2.84615        1.64386        0.66199
H          4.15313        0.71624        2.34571
H          5.83119        1.03214        1.81789
H          5.19785       -0.62903        1.79669
H          4.93539        0.64532       -1.75621
