14

C	0.862765	-0.237658	-0.050064
C	2.357565	-0.002718	-0.14454
C	3.050505	-0.887819	-1.155514
O	2.608892	1.356392	-0.559177
C	2.552621	2.302854	0.370487
O	2.304552	2.141452	1.532138
H	0.414856	0.424651	0.70362
H	0.660351	-1.277847	0.245447
H	0.381183	-0.054397	-1.023048
H	2.807718	-0.130895	0.853981
H	2.623951	-0.737512	-2.159133
H	2.927164	-1.945906	-0.88079
H	4.125589	-0.661525	-1.199231
H	2.777878	3.285249	-0.097235
