19
-1866.95
C          0.99898        0.00887       -0.03309
C          2.51884        0.00510        0.03860
C          3.07490        1.11957        0.91850
C          4.49807        0.65317        1.18085
C          4.36862       -0.85252        1.40038
C          3.08452       -1.27143        0.67566
O          3.35316       -2.25149       -0.31586
H          0.63940       -0.81843       -0.65312
H          0.63669        0.94449       -0.47093
H          0.55086       -0.09359        0.96052
H          2.90793        0.11728       -0.98258
H          2.52037        1.19658        1.86143
H          3.04681        2.09390        0.42221
H          5.12456        0.84674        0.30156
H          4.95268        1.15968        2.03729
H          5.25875       -1.38767        1.05520
H          4.25769       -1.04976        2.47301
H          2.38286       -1.71192        1.39253
H          4.01377       -1.88562       -0.92878
