17

C	3.448307	-1.89607	0.039282
C	3.256043	-0.590923	0.793119
C	3.858572	0.639298	0.109358
O	3.557938	1.814392	0.827366
C	5.374261	0.517548	0.011977
N	6.019906	0.95442	1.130993
N	6.002313	-0.03199	-0.956199
H	2.966461	-2.730311	0.569609
H	4.515462	-2.136777	-0.075224
H	3.006087	-1.845628	-0.968881
H	3.693593	-0.657004	1.802943
H	2.174811	-0.396516	0.92569
H	3.471649	0.704217	-0.927801
H	2.642474	1.766876	1.120377
H	5.540383	1.669434	1.663649
H	7.027716	1.017056	1.062343
H	5.343735	-0.322005	-1.679492
