17

C	2.082581	-0.278114	-1.459439
C	2.486743	0.129274	-0.053109
C	3.242753	1.433853	-0.018778
O	2.438552	2.483694	-0.473266
C	3.008482	3.638363	0.085028
C	3.451291	3.15604	1.469873
O	3.616546	1.766548	1.298439
H	1.531846	-1.230119	-1.45501
H	2.963817	-0.405538	-2.108563
H	1.439542	0.489144	-1.916119
H	3.127211	-0.634287	0.416437
H	1.605512	0.255205	0.596239
H	4.160847	1.372175	-0.650886
H	3.875399	3.982297	-0.513975
H	2.256246	4.43945	0.108695
H	4.39311	3.626876	1.799761
H	2.680273	3.346407	2.237213
