19

C	2.618168	-0.727782	-0.970335
N	2.827589	-0.028374	0.274581
C	3.235264	1.365961	0.143721
C	2.550209	2.201797	1.226665
N	2.911365	1.689319	2.544662
C	4.761548	1.506861	0.212469
O	5.27874	0.904301	1.365624
H	2.405208	-1.78902	-0.770362
H	3.474259	-0.68836	-1.679063
H	1.739538	-0.317431	-1.495267
H	3.552589	-0.498384	0.816908
H	2.89327	1.751157	-0.833155
H	1.458194	2.195434	1.040212
H	2.891511	3.247799	1.148695
H	2.478823	0.771225	2.655539
H	2.54149	2.280101	3.285415
H	5.035476	2.580835	0.138527
H	5.216697	1.005797	-0.65967
H	4.713323	1.225206	2.099233
