14
-1445.43
O          1.04332        0.09430       -0.39276
N          2.36097       -0.01234        0.06631
C          2.93734        1.14389        0.10668
C          4.35820        1.26706        0.58226
C          4.54474        2.77350        0.69373
C          3.32157        3.35386        0.05734
C          2.38849        2.45851       -0.27501
H          0.72735       -0.82552       -0.33134
H          5.02964        0.83081       -0.16322
H          4.49942        0.76083        1.54015
H          5.45639        3.09955        0.18301
H          4.60814        3.08642        1.74230
H          3.20267        4.42013       -0.09385
H          1.42446        2.61889       -0.72164
