13
-1340.
C          0.98920       -0.03991        0.00596
C          2.45252        0.12087       -0.00042
C          3.30213        1.19880       -0.02985
C          4.58961        0.62801       -0.03855
N          5.71955        1.35049       -0.07791
N          4.53422       -0.70322       -0.00263
O          3.18719       -1.02343        0.01940
H          0.48773        0.93240        0.01675
H          0.66706       -0.59906        0.88929
H          0.66018       -0.58221       -0.88553
H          3.02939        2.24197       -0.05356
H          5.73307        2.33986        0.13026
H          6.59647        0.86862        0.08785
