11

C	0.930615	0.059292	-7.7e-05
C	2.268261	0.020448	-0.001203
O	2.99379	1.193184	-0.002621
C	4.331282	1.094808	-0.003674
N	5.031083	0.032462	-0.003548
N	4.369212	-1.193572	-0.00218
C	3.088024	-1.183698	-0.001101
H	0.396314	1.010061	-0.000254
H	0.36656	-0.873164	0.00105
H	4.812662	2.077583	-0.004741
H	2.576497	-2.153565	-2e-05
