15

C	0.932987	-0.053373	-0.02403
C	2.383716	0.000314	0.001038
C	3.599666	0.049387	0.023316
C	5.016565	0.072065	0.035792
C	5.76901	1.111573	0.466351
C	7.216353	1.102933	0.468464
C	7.97823	2.124463	0.891918
H	0.494925	0.956215	0.013725
H	0.540563	-0.620113	0.836215
H	0.568189	-0.544825	-0.940258
H	5.524164	-0.828732	-0.333773
H	5.268233	2.013328	0.836173
H	7.699915	0.191621	0.095331
H	7.530243	3.048627	1.27023
H	9.069363	2.069708	0.87392
