16
-1494.17
N          2.62452       -0.52471        1.27458
C          2.40979        0.14431       -0.00100
C          2.83371        1.59072        0.06465
C          1.92861        2.57421       -0.10124
C          4.31072        1.81643        0.30250
N          4.72330        3.21745        0.25322
H          2.22459       -1.46023        1.22991
H          2.09441       -0.02807        1.99110
H          1.35158        0.05491       -0.27260
H          2.98037       -0.36971       -0.78275
H          0.87859        2.36259       -0.27376
H          2.20968        3.62160       -0.04833
H          4.88620        1.26266       -0.44906
H          4.58419        1.41875        1.28567
H          4.63073        3.54670       -0.70611
H          5.71625        3.26996        0.47506
