19

C	0.953986	-0.106838	-0.036723
C	2.484354	-0.013931	0.034374
C	2.989838	-0.688724	1.306608
C	3.089711	-0.700154	-1.198994
C	2.875024	1.443251	0.003781
N	3.558024	1.994103	0.924312
N	3.931859	3.282425	0.803131
H	0.56124	0.393295	-0.937177
H	0.488143	0.363901	0.843083
H	0.630912	-1.159733	-0.072424
H	2.574228	-0.204226	2.201876
H	4.085008	-0.622155	1.379668
H	2.698064	-1.750776	1.314353
H	2.756644	-0.21644	-2.131761
H	2.782758	-1.757614	-1.243962
H	4.189881	-0.662161	-1.170088
H	2.539202	2.020237	-0.8839
H	4.104968	3.709949	1.704646
H	3.356216	3.868198	0.193926
