14

C	2.940377	-1.030095	-0.427569
O	2.412519	0.223359	-0.110965
C	3.353645	1.243237	-0.041263
C	3.627755	1.884701	-1.406183
C	2.760127	3.095259	-1.276908
N	2.332161	3.288728	-0.093689
O	2.791222	2.285121	0.727922
H	2.117768	-1.756633	-0.383512
H	3.724989	-1.340678	0.290369
H	3.377287	-1.066283	-1.445176
H	4.263591	0.893455	0.482189
H	3.33808	1.219828	-2.233604
H	4.683484	2.170223	-1.546972
H	2.498084	3.803938	-2.065057
