14

C	0.870644	-0.194073	-0.103673
C	2.376135	-0.035064	0.061168
O	3.088919	-0.784919	-0.893985
C	2.781402	1.409871	0.003935
C	3.287752	2.09622	1.038474
C	3.650834	3.473754	0.957536
N	3.944419	4.594984	0.906924
H	0.318023	0.317369	0.697874
H	0.609463	-1.262405	-0.091451
H	0.536559	0.231129	-1.065584
H	2.67618	-0.44476	1.039911
H	2.749877	-0.560413	-1.768401
H	2.640579	1.91719	-0.959656
H	3.444516	1.611626	2.008809
