16
-1628.19
C          0.97428        0.01446       -0.04343
C          2.49743       -0.00333       -0.00502
C          3.05627       -1.27491        0.64989
C          3.38882       -0.90016        2.09546
C          3.52782        0.58409        2.02698
C          3.04051        1.07566        0.88353
H          0.59657       -0.80111       -0.66955
H          0.60538        0.95784       -0.46139
H          0.53937       -0.10187        0.95614
H          2.89206        0.09898       -1.02163
H          3.97986       -1.57214        0.13483
H          2.37227       -2.12861        0.59516
H          4.31304       -1.38296        2.42584
H          2.57885       -1.17446        2.77942
H          3.94394        1.18230        2.82608
H          3.01322        2.12694        0.62973
