19
-1846.88
C          3.91605        2.63869       -3.12455
O          4.95288        2.18182       -2.26531
C          4.62829        1.86567       -0.96258
C          3.40079        1.94645       -0.41947
C          5.81736        1.39522       -0.13855
C          6.39992        0.09864       -0.70543
C          6.89376        2.47930       -0.05246
H          4.35709        2.84182       -4.10482
H          3.48007        3.57128       -2.75197
H          3.14740        1.86966       -3.25409
H          2.52908        2.27579       -0.97033
H          3.23282        1.67633        0.61848
H          5.48842        1.18261        0.88691
H          6.79373        0.23825       -1.71861
H          5.63865       -0.68862       -0.74459
H          7.22064       -0.26267       -0.07573
H          7.32071        2.70782       -1.03545
H          7.71316        2.15698        0.59951
H          6.48346        3.40702        0.36181
