17
-1664.11
C          1.03611        0.04061        0.04035
C          2.55245       -0.03118        0.02378
O          3.09816        1.04035        0.80505
C          4.41431        0.62690        1.17918
C          4.34841       -0.87264        1.39407
C          3.10642       -1.31479        0.64141
O          3.41660       -2.29335       -0.34287
H          0.59628       -0.76420       -0.55529
H          0.69678        1.00116       -0.36132
H          0.65007       -0.02500        1.06273
H          2.90213        0.09047       -1.00963
H          5.09780        0.87579        0.35907
H          4.73388        1.16805        2.07377
H          5.27036       -1.37197        1.08020
H          4.21507       -1.07478        2.46363
H          2.39384       -1.76843        1.33890
H          4.07110       -1.91510       -0.95523
