20

N	0.290604	1.492605	0.14034
C	1.660156	1.021859	0.200601
C	2.637145	2.187171	0.204068
C	4.092835	1.761159	0.31534
C	5.068903	2.937595	0.310916
C	6.496431	2.514894	0.454295
C	7.463048	2.732139	-0.438822
H	-0.359974	0.711429	0.18093
H	0.118964	1.956218	-0.750726
H	1.944435	0.323574	-0.618722
H	1.789212	0.45021	1.136941
H	2.368094	2.863721	1.033281
H	2.498408	2.777175	-0.721613
H	4.349918	1.078564	-0.513906
H	4.234711	1.172913	1.240425
H	4.804267	3.616223	1.143216
H	4.942676	3.522497	-0.616423
H	6.74146	1.966245	1.374022
H	7.265385	3.269951	-1.372467
H	8.48614	2.383787	-0.273824
