13
-1374.43
C          0.72670       -1.24074        0.49442
O         -0.63614       -1.55682        0.13157
C         -1.53834       -0.54269       -0.01246
C         -1.23891        0.75921       -0.04207
C          0.13132        1.24330        0.04750
O          1.15132        0.79517       -0.86276
C          1.13265        0.19772        0.43990
H          1.38525       -1.84123       -0.14375
H          0.85923       -1.60282        1.52130
H         -2.54141       -0.93012       -0.13595
H         -2.03205        1.48779       -0.17851
H          0.24684        2.23700        0.46317
H          1.94303        0.44458        1.10956
