20
-1854.28
C          1.88603       -0.06321        1.85955
O          3.04493        0.75532        1.77723
C          3.00980        1.70395        0.70519
C          1.97694        2.79989        0.96155
C          4.42573        2.27788        0.53315
C          4.97928        2.94468        1.79399
N          6.31839        3.47528        1.53812
H          2.07404       -0.84418        2.60124
H          1.67475       -0.54074        0.89838
H          1.02354        0.51962        2.19293
H          2.75339        1.18069       -0.22500
H          2.06460        3.20512        1.97481
H          0.96093        2.40119        0.87264
H          2.07448        3.61571        0.23860
H          4.42949        2.99064       -0.30124
H          5.09749        1.45473        0.25469
H          5.03149        2.22743        2.61997
H          4.33624        3.77219        2.10826
H          6.94001        2.70686        1.28737
H          6.69000        3.86446        2.40396
