14

O	0.889353	-0.040854	0.388651
S	2.263932	0.043218	-0.087885
O	2.564987	0.199151	-1.508653
C	3.190886	1.291703	0.847652
C	4.492545	0.578847	1.168963
N	4.076534	-0.754151	1.572871
C	3.271078	-1.357121	0.547145
H	2.606672	1.512727	1.750542
H	3.284614	2.174552	0.202514
H	5.156808	0.594114	0.277866
H	5.024034	1.074293	1.995098
H	4.845875	-1.346436	1.86972
H	3.80594	-1.732883	-0.347067
H	2.580971	-2.121191	0.933233
