16
-1588.78
N          0.92866       -0.07179       -0.08942
C          2.37289       -0.02654        0.13724
C          3.03617        1.24682       -0.45061
O          3.20395        1.16165       -1.86883
C          4.08976        0.10261       -2.24153
C          3.77988       -1.18803       -1.54097
C          2.97866       -1.25794       -0.46539
H          0.50763        0.81120        0.18783
H          0.51398       -0.79545        0.49168
H          2.54727       -0.02338        1.21969
H          2.42698        2.13234       -0.23559
H          4.01779        1.41806        0.01177
H          5.12138        0.40675       -2.03266
H          3.99353       -0.03408       -3.32345
H          4.21668       -2.09322       -1.95097
H          2.75753       -2.21915       -0.01241
