14
-1337.43
C          2.39426       -0.96711       -0.89404
O          2.02696        0.31824       -0.41295
C          3.16850        1.11246       -0.02757
C          3.61491        2.13710       -1.03013
C          2.88782        2.57220        0.20582
O          3.70026        3.21553        1.19987
H          1.48654       -1.49752       -1.19379
H          2.89199       -1.53858       -0.10479
H          3.05211       -0.87472       -1.76362
H          3.91685        0.65970        0.61613
H          3.08404        2.19141       -1.97340
H          4.67636        2.34022       -1.10050
H          1.85624        2.89458        0.10659
H          3.62077        4.18298        1.13777
