18
-1703.79
C          0.87710       -0.33307        0.42434
C          2.21505       -0.35474       -0.29879
N          3.23883        0.27997        0.53094
C          4.52860        0.28141       -0.18397
C          5.60323        0.91643        0.70991
O          6.29438       -0.34779        0.86524
C          5.30050       -1.02307        0.05850
H          0.10566       -0.79836       -0.19759
H          0.56123        0.69265        0.64223
H          0.92698       -0.88562        1.36855
H          2.11177        0.18078       -1.24976
H          2.48443       -1.39354       -0.52232
H          3.26854       -0.16539        1.44968
H          4.51673        0.65266       -1.21296
H          5.28584        1.31417        1.67937
H          6.23906        1.65356        0.20947
H          5.75063       -1.46119       -0.83772
H          4.79843       -1.80997        0.63041
