11

C	1.088589	-0.197892	-0.392012
C	2.392182	-0.021616	-0.15309
C	3.053944	1.281075	-0.102111
N	2.414072	2.422929	-0.288448
S	3.502286	3.635742	-0.150993
N	4.837761	2.727566	0.154309
C	4.454806	1.474112	0.153114
H	0.64941	-1.19765	-0.417655
H	0.432208	0.658752	-0.567953
H	3.041151	-0.885817	0.021441
H	5.178743	0.675727	0.336479
