15

C	2.345357	-0.38593	-1.648169
N	2.418646	0.099219	-0.290041
C	3.359221	1.185799	-0.091479
C	3.440544	1.622033	1.374863
O	2.985578	2.980901	1.4167
N	2.682084	3.41078	0.165874
C	2.878313	2.485861	-0.686465
H	1.689354	-1.267606	-1.691167
H	3.327395	-0.665314	-2.089524
H	1.897601	0.376664	-2.305288
H	2.666211	-0.666134	0.333165
H	4.368219	0.94493	-0.49949
H	4.463419	1.589606	1.779966
H	2.774568	1.012485	2.00649
H	2.684191	2.682787	-1.742235
