15
-1501.13
C          1.06183       -0.06337        0.44396
C          2.52000        0.00000        0.00000
N          2.64462       -0.54402       -1.33671
C          2.79620       -1.86079       -1.60363
N          2.73992       -2.39076       -2.77063
C          3.00202        1.36117        0.00000
C          3.39930        2.48307        0.00000
H          0.93908        0.34814        1.45240
H          0.70045       -1.09783        0.45625
H          0.40945        0.50567       -0.22954
H          3.12537       -0.59251        0.69693
H          2.37217        0.07512       -2.08901
H          2.98380       -2.49130       -0.71754
H          2.57472       -1.66552       -3.47091
H          3.76000        3.48617       -0.00119
