15
-1513.75
C          2.33400       -0.29903       -1.64242
O          2.16649        0.53226       -0.50546
C          3.27491        1.39466       -0.30128
O          3.50643        1.57825        1.10521
C          3.01931        2.87634        1.47690
C          2.80078        3.59903        0.20250
C          2.94139        2.74882       -0.81405
H          1.43309       -0.90744       -1.76015
H          3.18836       -0.96895       -1.50421
H          2.46845        0.30225       -2.54689
H          4.19822        1.00054       -0.74046
H          3.77239        3.36608        2.10013
H          2.09081        2.76511        2.04464
H          2.53137        4.64077        0.12472
H          2.80592        2.98519       -1.85695
