19

C	1.099877	-0.154208	-0.095476
C	2.617815	-0.088639	-0.151139
C	3.173433	1.284375	0.198863
C	4.681111	1.350766	0.13388
C	5.354166	1.373874	-1.248956
C	5.959762	2.691179	-0.753936
O	5.189606	2.652802	0.44378
H	0.725706	-1.156236	-0.35506
H	0.643465	0.563509	-0.795677
H	0.727148	0.089786	0.912478
H	2.963263	-0.374209	-1.160957
H	3.047139	-0.841025	0.533865
H	2.862515	1.575144	1.217584
H	2.761334	2.052403	-0.479435
H	5.115777	0.587851	0.811669
H	4.644377	1.482665	-2.082574
H	6.055853	0.559304	-1.4744
H	7.047386	2.653976	-0.553476
H	5.750958	3.590624	-1.359993
