12

C	1.004549	0.047396	-0.569822
O	2.379366	-0.024802	-0.286825
C	3.048594	1.13191	-0.269643
C	4.364655	1.188057	0.011345
C	5.089864	2.40563	0.030873
C	5.730855	3.438281	0.053038
H	0.61674	-0.978813	-0.552407
H	0.816582	0.479598	-1.568526
H	0.464337	0.643424	0.1867
H	2.475723	2.04058	-0.498805
H	4.892832	0.254981	0.233796
H	6.292754	4.353188	0.072525
