17
-1727.9
C          1.35499       -0.01062       -0.12500
C          2.83923       -0.27544        0.07014
C          3.67847        0.98222       -0.09409
O          3.17096        2.07295       -0.36067
C          5.17240        0.89146        0.07367
C          5.91896        2.18188       -0.10352
C          5.79838       -0.26117        0.36212
H          0.78323       -0.93543        0.00074
H          1.15346        0.38223       -1.12736
H          0.98652        0.72065        0.60245
H          3.16555       -1.01488       -0.66854
H          2.99624       -0.67426        1.07770
H          5.76520        2.57884       -1.11245
H          6.99731        2.05371        0.03982
H          5.57674        2.92677        0.62259
H          5.28216       -1.20523        0.49465
H          6.87866       -0.29174        0.47656
