17
-1569.91
C          1.85070       -0.66502        0.35785
N          3.23390       -0.22073        0.24399
C          3.30523        1.21390       -0.04309
C          4.76217        1.65314       -0.14377
C          4.81884        3.13474       -0.38120
N          5.27872        3.61136       -1.49156
O          5.21455        5.00868       -1.44234
H          1.83010       -1.73790        0.57264
H          1.29686       -0.49642       -0.57112
H          1.33803       -0.15492        1.17948
H          3.69052       -0.74064       -0.50654
H          2.80693        1.77997        0.75383
H          2.78554        1.44303       -0.98229
H          5.27562        1.12898       -0.95698
H          5.29327        1.44678        0.79209
H          4.44662        3.79046        0.42655
H          5.61167        5.26600       -2.29649
