15

C	0.703179	-0.030338	-0.006232
C	2.164761	-0.0729	0.287218
C	3.029029	0.896326	-0.046487
N	4.378957	0.898823	0.28051
C	5.352127	1.725472	-0.197464
N	4.995313	2.541334	-1.224679
S	6.871987	1.743566	0.476831
H	0.387681	-0.901239	-0.605863
H	0.424186	0.879642	-0.559319
H	0.10441	-0.054854	0.919825
H	2.545023	-0.952041	0.82232
H	2.682114	1.790606	-0.574396
H	4.709932	0.261308	0.996441
H	4.254854	2.270165	-1.860765
H	5.754416	3.082131	-1.617267
