13

O	1.113018	-0.042582	-0.415745
C	2.213654	0.229776	-0.076995
C	3.393661	-0.433487	0.724088
C	3.570725	0.99458	1.300037
C	3.184399	1.466401	-0.124973
C	4.256532	0.802678	-0.960593
C	4.39147	-0.423185	-0.412592
H	3.275632	-1.327729	1.3468
H	2.823034	1.254925	2.066449
H	4.590745	1.2525	1.624691
H	2.855813	2.485555	-0.357799
H	4.699368	1.200233	-1.873326
H	4.972628	-1.274515	-0.766322
