16

C	1.003424	0.006302	0.056983
C	2.49891	-0.121246	0.033881
C	3.007185	-1.52105	0.221142
C	3.280154	0.960642	-0.125933
C	4.773165	1.031993	-0.184797
O	5.220933	1.751966	-1.309865
H	0.673865	1.044924	-0.085812
H	0.592045	-0.355135	1.015585
H	0.543104	-0.614613	-0.730759
H	2.535426	-2.204067	-0.504918
H	2.734439	-1.897499	1.222073
H	4.096761	-1.609872	0.118551
H	2.792041	1.935979	-0.249789
H	5.229647	0.024903	-0.135804
H	5.151833	1.58458	0.692505
H	4.817548	1.346733	-2.085032
