16
-1632.72
O          1.32877        0.15926        0.83921
C          2.38850        0.06044        0.22689
C          3.06255       -1.27431       -0.01272
C          3.98868       -1.28304       -1.22081
C          4.91764       -0.07736       -1.18393
C          4.08480        1.19306       -1.18468
N          3.06757        1.18322       -0.15927
H          2.28662       -2.03592       -0.14614
H          3.62655       -1.52138        0.89431
H          4.57362       -2.20917       -1.23368
H          3.39494       -1.26149       -2.14297
H          5.54028       -0.11836       -0.28172
H          5.59030       -0.08687       -2.04832
H          4.71519        2.07282       -1.02293
H          3.57288        1.31430       -2.14589
H          2.55305        2.03826        0.01803
