17
-1597.85
C          3.70990       -0.56360        1.89022
C          2.71761       -0.34716        0.75870
N          2.65275        1.04847        0.33500
N          2.00489        1.97363        1.19940
C          0.59859        2.12443        0.83461
C          3.50823        1.55693       -0.63518
O          3.65975        2.74662       -0.89247
H          3.74892       -1.62260        2.16200
H          3.42288        0.00503        2.78058
H          4.71593       -0.24480        1.59916
H          1.71495       -0.66785        1.06213
H          3.01452       -0.95672       -0.10200
H          2.46475        2.88249        1.05031
H          0.05291        1.18576        0.97547
H          0.48359        2.45055       -0.20466
H          0.13449        2.87611        1.48041
H          4.04613        0.76582       -1.18402
