19
-1890.91
C          0.97163       -0.09817        0.17980
C          2.49389       -0.02811        0.00763
C          2.87335       -0.77116       -1.28318
C          3.02739        1.43282        0.00000
C          2.54993        2.24114        1.21205
C          4.47061        1.45999       -0.03862
C          5.66014        1.48238       -0.07045
H          0.66461        0.25997        1.16700
H          0.61609       -1.13072        0.09232
H          0.45924        0.50088       -0.58031
H          2.94840       -0.57152        0.84774
H          2.46793       -0.26324       -2.16489
H          2.47996       -1.79358       -1.27243
H          3.95866       -0.84565       -1.40146
H          2.64230        1.93548       -0.89733
H          2.80847        1.74127        2.15329
H          1.46587        2.39353        1.19107
H          3.01132        3.23649        1.22962
H          6.72523        1.50203       -0.09898
