18
-1775.1
C          1.10037        0.14492        0.23540
N          2.49332       -0.08764       -0.13026
C          2.72669       -1.48402       -0.55273
C          2.77584       -1.48552       -2.08725
C          3.20745       -0.09752       -2.44666
C          2.21085        1.02154       -2.51344
C          2.96616        0.77059       -1.24047
H          0.94072        1.19991        0.48368
H          0.84275       -0.43516        1.12838
H          0.40078       -0.13129       -0.56095
H          1.99778       -2.20072       -0.15910
H          3.70969       -1.78393       -0.16900
H          3.47836       -2.23751       -2.45964
H          1.78478       -1.69551       -2.50600
H          4.15863       -0.02554       -2.95145
H          2.47910        1.90163       -3.08791
H          1.15769        0.77842       -2.56902
H          3.73574        1.48714       -0.96828
