18

O	1.0252	-0.030019	0.057043
C	2.436782	0.022633	0.039782
C	2.921575	-1.314833	-0.508016
C	2.552998	-1.462406	-1.985293
N	3.007215	-0.360271	-2.814528
C	2.566903	0.925331	-2.308258
C	2.939428	1.166982	-0.843876
H	0.695907	0.83245	0.329092
H	2.827488	0.15622	1.069591
H	2.48097	-2.129166	0.089395
H	4.017385	-1.370658	-0.3846
H	2.951765	-2.405539	-2.391722
H	1.454408	-1.521421	-2.066574
H	4.023773	-0.374118	-2.880568
H	2.970008	1.725176	-2.94992
H	1.467746	0.969075	-2.40274
H	4.036608	1.242762	-0.741551
H	2.525561	2.127952	-0.486715
