17

C	0.717249	2.090382	-0.575469
C	2.055221	1.462911	-0.392213
C	3.189335	2.120763	-0.0876
C	4.478697	1.489793	0.080756
C	5.619868	2.146061	0.389956
C	6.907443	1.506364	0.553367
C	8.045708	2.148526	0.862432
H	-0.016972	1.683517	0.141007
H	0.313708	1.880665	-1.581247
H	0.75527	3.182101	-0.443116
H	2.10777	0.373386	-0.520131
H	3.151325	3.210292	0.044804
H	4.519124	0.401219	-0.056675
H	5.58401	3.234297	0.529151
H	6.932624	0.41879	0.40876
H	8.063286	3.232347	1.01522
H	8.991795	1.614346	0.974917
