18
-1771.51
C          0.94780        0.07041        0.08689
N          2.39008       -0.09703       -0.00176
C          3.07145        1.19893       -0.00117
C          4.57299        1.02720       -0.14967
C          5.16399        1.24172       -1.34017
C          5.40108        0.67515        0.99717
C          4.97559        0.40285        2.23690
H          0.46213       -0.90940        0.03491
H          0.55798        0.68031       -0.73520
H          0.66286        0.52915        1.03936
H          2.62420       -0.58127       -0.86780
H          2.84885        1.75561        0.91785
H          2.69031        1.81430       -0.82670
H          4.58503        1.51482       -2.21683
H          6.23577        1.13940       -1.48052
H          6.47641        0.62855        0.82088
H          3.92540        0.40224        2.50943
H          5.68544        0.15023        3.01755
