9
-993.41
O          1.00991       -0.06297        0.01871
C          2.44143        0.01395        0.00042
C          2.92716       -0.72718       -1.17379
C          3.32102       -1.33728       -2.13221
C          2.89676        1.42123        0.03919
N          3.23215        2.53166        0.11476
H          0.70003        0.54501        0.71142
H          2.79203       -0.49268        0.90697
H          3.66201       -1.87650       -2.98563
