17

C	3.797369	0.764971	2.7213
N	3.616142	0.513711	1.308152
C	3.572663	1.669583	0.414699
C	2.645774	2.804604	0.830565
C	5.013959	2.140453	0.194197
O	5.837805	1.052841	-0.077022
H	3.863287	-0.194264	3.255631
H	2.994161	1.361863	3.197494
H	4.748522	1.292254	2.895464
H	2.815584	-0.089667	1.148608
H	3.227215	1.268906	-0.554292
H	2.985903	3.290087	1.758643
H	1.618117	2.443493	0.992997
H	2.609341	3.57879	0.048156
H	5.353488	2.709592	1.089036
H	5.043209	2.849814	-0.651527
H	5.404881	0.325042	0.406768
