17
-1686.34
C          0.99136        0.01077        0.02078
C          2.50990       -0.03265        0.02148
C          3.14060        1.13529        0.80008
N          4.41743        0.58323        1.18700
C          4.34729       -0.76944        1.30494
N          5.21089       -1.49594        1.91613
C          3.07370       -1.29689        0.69585
H          0.58157       -0.83765       -0.53695
H          0.63166        0.93202       -0.44899
H          0.58893       -0.02852        1.03868
H          2.87093       -0.00131       -1.01561
H          2.55784        1.39459        1.69084
H          3.25859        2.02557        0.17589
H          4.99651        1.06079        1.86772
H          4.92721       -2.48061        1.88882
H          3.28072       -2.09450       -0.02228
H          2.42759       -1.67453        1.49466
