20

C	2.926537	-1.057431	-0.707009
C	2.38858	0.128632	0.082762
C	3.348215	1.29159	0.137857
C	3.480092	2.297802	-0.988601
C	2.668465	2.229478	-2.256713
C	2.877338	2.716075	0.315065
N	3.526693	3.688935	1.140687
H	2.216155	-1.899032	-0.714918
H	3.872299	-1.423225	-0.276495
H	3.130231	-0.777119	-1.752358
H	2.150944	-0.187226	1.11379
H	1.429239	0.457403	-0.350501
H	4.295564	1.061702	0.643297
H	4.505038	2.657639	-1.146906
H	1.649968	1.857524	-2.071864
H	3.136265	1.563394	-2.999778
H	2.573751	3.227197	-2.71363
H	1.785123	2.840493	0.29427
H	4.528983	3.693488	0.966267
H	3.404839	3.457088	2.125629
