14

C	0.952297	0.039166	-0.010284
C	2.447734	0.062388	-0.002158
C	3.228865	1.192008	0.007215
S	4.878976	0.752057	0.013432
N	4.588715	-0.875143	0.004477
C	3.292951	-1.101866	-0.003345
C	2.80024	-2.516487	-0.01386
H	0.537841	1.056237	-0.006343
H	0.552658	-0.488047	0.871131
H	0.562172	-0.477313	-0.902248
H	2.897244	2.231026	0.010638
H	1.703327	-2.570281	-0.002687
H	3.184556	-3.062801	0.860633
H	3.164634	-3.042905	-0.909111
