16
-1617.78
C          0.76337        0.07945        0.07463
C          2.24251        0.03520        0.29005
C          3.09502        0.95624       -0.19569
C          4.59463        1.02319       -0.04490
N          5.15284       -0.02420        0.79556
C          5.21408        0.94866       -1.37779
C          5.72507        0.88755       -2.46356
H          0.43633       -0.82506       -0.44722
H          0.45545        0.94604       -0.51881
H          0.24842        0.12594        1.03904
H          2.60537       -0.80891        0.86972
H          2.67812        1.78230       -0.77281
H          4.84304        1.98892        0.41045
H          4.95021       -0.92274        0.36374
H          4.67722       -0.00839        1.69326
H          6.18366        0.82902       -3.42343
