17
-1695.59
C          1.72785       -0.04239        0.44626
C          2.59188        0.10498       -0.80982
C          1.76939       -0.23122       -2.03205
C          2.05458       -1.23115       -2.87626
C          3.18300        1.49450       -0.86275
C          4.64010        1.73234       -0.55788
O          4.14958        1.69760       -1.90422
H          2.31108        0.17935        1.34708
H          1.33590       -1.06123        0.54025
H          0.87469        0.64739        0.43115
H          3.41197       -0.62009       -0.72282
H          0.90718        0.39993       -2.23981
H          2.91635       -1.87758       -2.72496
H          1.44026       -1.41503       -3.75118
H          2.46676        2.28763       -0.69032
H          5.25984        0.90336       -0.23795
H          4.93246        2.69518       -0.16009
