12
-1283.59
N          0.98047       -0.13548        0.51299
C          2.29617       -0.01883        0.12790
C          3.03249        1.09696       -0.01512
C          2.45719        2.44769        0.19451
O          1.25778        2.65887        0.35432
C          4.45428        0.94630       -0.38901
O          5.19455        1.90826       -0.55428
H          0.45358       -0.85894        0.02769
H          0.48394        0.76665        0.51415
H          2.73277       -1.00116       -0.04592
H          3.18616        3.27544        0.18439
H          4.81888       -0.08704       -0.51494
