14
-1400.83
C          1.15250        0.01598       -0.69285
O          2.51555       -0.09475       -0.29995
N          3.09407        1.18379       -0.34361
C          4.32549        1.08466        0.01124
C          5.01156        2.34476        0.00000
C          5.60664        3.37547        0.00000
C          6.32864        4.62601        0.00000
H          0.70172       -0.97933       -0.65937
H          1.08281        0.40075       -1.71483
H          0.61164        0.67172       -0.00376
H          4.85037        0.16186        0.30231
H          5.64860        5.47363       -0.12906
H          7.06099        4.65824       -0.81253
H          6.86741        4.77001        0.94158
