16
-1565.9
N          0.93253       -0.02256       -0.21804
C          2.38051       -0.07939       -0.53430
C          2.59497       -1.17904       -1.59569
O          1.71008       -0.97744       -2.69782
C          2.85966        1.30179       -1.02589
C          4.32621        1.36548       -1.15349
C          5.52073        1.42063       -1.26855
H          0.77680        0.67914        0.50742
H          0.64816       -0.91261        0.19526
H          2.92802       -0.35321        0.37597
H          2.37253       -2.16445       -1.17140
H          3.62197       -1.20018       -1.97111
H          0.89399       -0.61517       -2.29484
H          2.54677        2.07272       -0.30975
H          2.39186        1.55690       -1.98447
H          6.57891        1.47147       -1.38311
