17

C	1.345127	2.721688	-1.113824
O	2.046615	2.326313	0.034673
C	3.043916	1.395494	-0.210106
O	4.095091	1.8989	-0.975008
C	4.858747	2.852897	-0.310711
C	5.960725	2.38	0.590852
C	6.269669	2.984418	-0.755454
H	0.59629	3.464738	-0.80718
H	0.822075	1.866037	-1.584316
H	2.011808	3.17287	-1.869555
H	2.654851	0.529726	-0.779681
H	3.400454	1.06566	0.782088
H	4.305765	3.754652	-0.020628
H	6.085726	1.297741	0.687567
H	6.184257	2.951714	1.49507
H	6.714342	3.981601	-0.802194
H	6.585394	2.300201	-1.547353
