18
-1760.52
C          0.89366        0.03629        0.32954
N          2.30147        0.18372       -0.02289
C          2.98782        1.08119        0.93091
C          4.08026        0.00858        1.13444
C          3.08680       -0.96864        0.46906
C          5.41067        0.21788        0.48639
C          5.55394        0.52349       -0.80870
H          0.43820       -0.75412       -0.27667
H          0.35515        0.96447        0.11005
H          0.72845       -0.20935        1.38561
H          2.43751        1.31396        1.85215
H          3.31545        2.03006        0.49289
H          4.23611       -0.22320        2.19698
H          3.49087       -1.60427       -0.32624
H          2.57913       -1.62270        1.19034
H          6.29055        0.11178        1.11487
H          4.70258        0.63904       -1.47380
H          6.54043        0.66676       -1.23852
