15

O	1.311705	0.179208	0.751906
C	2.328909	0.07471	0.127925
C	3.023165	-1.25845	-0.078012
C	4.032367	-1.307835	-1.215527
C	4.887662	-0.053439	-1.168809
C	3.992362	1.159955	-1.287184
O	2.932372	1.185216	-0.33828
H	2.232587	-2.016334	-0.167733
H	3.528483	-1.4616	0.883218
H	4.644348	-2.219974	-1.145833
H	3.506875	-1.355637	-2.185489
H	5.449424	-0.012756	-0.219486
H	5.628086	-0.030594	-1.984121
H	4.549359	2.095632	-1.133773
H	3.546874	1.203107	-2.297921
