11

O	1.170622	0.023282	0.525718
C	2.309832	-0.011058	0.160222
C	3.172198	-1.236844	-0.090288
C	4.482871	-0.650715	-0.524603
C	4.496408	0.695289	-0.558291
C	3.187599	1.232666	-0.149085
O	2.819785	2.374433	-0.055999
H	2.713778	-1.886488	-0.85621
H	3.254599	-1.849836	0.824038
H	5.338229	-1.279646	-0.78642
H	5.338978	1.326787	-0.843201
