11

O	2.381786	-0.693223	1.227208
C	2.131393	0.010572	0.048609
C	2.759484	1.390246	0.036094
C	2.086894	2.528606	-0.180624
C	4.173062	1.403556	0.285858
N	5.309791	1.338606	0.508086
H	3.31971	-0.914584	1.267283
H	1.040794	0.124307	-0.043339
H	2.478061	-0.540951	-0.849214
H	1.008091	2.505976	-0.356478
H	2.586435	3.49957	-0.194622
