15
-1494.99
C          1.67902       -0.09234       -1.71194
C          2.15931       -0.05891       -0.27224
C          3.16356        1.04978       -0.06993
N          2.83023        2.21263        0.36944
N          4.47839        0.88562       -0.37866
C          5.14420       -0.20836       -0.87429
O          6.34923       -0.22186       -1.08994
H          0.96074       -0.90569       -1.85514
H          2.50844       -0.24056       -2.41057
H          1.18607        0.84885       -1.97911
H          2.60188       -1.02069        0.00345
H          1.30754        0.10329        0.39727
H          1.82265        2.25800        0.55959
H          5.05496        1.69848       -0.20464
H          4.50659       -1.08285       -1.06593
