15
-1446.62
C          0.82195        0.29276       -0.24444
C          1.93793       -0.69033       -0.15048
C          2.71773       -1.07304       -1.37786
N          3.30805       -0.21575       -0.34761
N          4.14654       -0.99053        0.44798
C          4.57209       -0.50053        1.65641
O          5.46359       -1.01770        2.31769
H          0.70684        0.82520        0.70582
H         -0.11853       -0.22609       -0.45810
H          0.98530        1.03601       -1.03313
H          1.74742       -1.44989        0.59954
H          2.49012       -0.57998       -2.31502
H          3.04973       -2.09941       -1.47574
H          4.74063       -1.70217        0.03551
H          4.02473        0.39811        1.98818
