15

C	0.527829	-0.582108	-0.164103
C	2.018492	-0.440732	-0.272358
C	2.807032	-1.50764	-0.490632
N	2.601986	0.831073	-0.206241
C	2.153626	2.073503	0.148157
N	0.934525	2.185877	0.725246
S	3.105468	3.408958	-0.148603
H	0.000138	0.163679	-0.775653
H	0.171303	-0.490171	0.876122
H	0.234462	-1.582433	-0.505118
H	2.375612	-2.501122	-0.611638
H	3.893243	-1.412863	-0.570155
H	3.560526	0.882166	-0.533989
H	0.472398	1.402221	1.162586
H	0.68782	3.115839	1.034488
