15

C	1.870599	-0.945038	-0.093286
C	3.232537	-0.352625	0.167533
O	4.148614	-1.017183	0.602233
C	3.383507	1.09608	-0.138626
C	4.537867	1.731972	0.098369
C	4.784622	3.17815	-0.172882
O	3.748728	3.840301	-0.833712
H	1.106838	-0.411883	0.495316
H	1.867951	-2.009612	0.170746
H	1.598933	-0.821039	-1.154163
H	2.526029	1.644097	-0.542179
H	5.362104	1.14663	0.525766
H	5.756809	3.277149	-0.701774
H	4.932602	3.693523	0.793682
H	3.65062	3.441377	-1.705382
