19

N	1.16099	0.104218	-0.994855
C	2.583419	0.10274	-0.697667
C	3.044453	1.489451	-0.281015
C	4.51513	1.548507	0.078336
O	5.28851	1.179767	-1.02957
C	4.954559	2.937932	0.537721
N	6.404239	2.945882	0.65051
H	0.85475	-0.829901	-1.259063
H	0.982837	0.692143	-1.808453
H	3.233325	-0.240148	-1.527955
H	2.761032	-0.594839	0.140121
H	2.433476	1.829949	0.572227
H	2.867935	2.198331	-1.111013
H	4.691622	0.842808	0.925787
H	6.155434	1.584028	-0.84509
H	4.414706	3.224111	1.462219
H	4.668902	3.660201	-0.245054
H	6.707699	2.512939	1.520794
H	6.782961	3.88828	0.637179
