13
-1227.02
C          0.90610        0.04469       -0.00607
C          2.41864        0.00845       -0.00599
C          3.12827        0.97211        0.94396
O          4.14943        0.02053        1.32108
S          3.21779       -1.26109        0.91199
O          2.45879       -1.68642        2.06506
O          3.97516       -2.15382        0.06477
H          0.50101       -0.80059       -0.57146
H          0.54449        0.96535       -0.47527
H          0.49494        0.00167        1.00767
H          2.81397        0.05857       -1.02816
H          2.54933        1.29466        1.81772
H          3.55648        1.85815        0.46552
