15

O	2.268295	0.552341	2.547006
N	2.972123	0.582107	1.376367
C	2.992134	1.73692	0.84499
C	3.710678	1.941134	-0.447007
N	4.691907	2.997952	-0.322777
C	6.003707	2.623722	0.146467
C	5.776727	3.003538	-1.271321
H	2.33989	-0.365898	2.827608
H	2.499509	2.59606	1.326145
H	2.985504	2.246874	-1.222065
H	4.142787	0.968268	-0.762548
H	6.192408	1.562323	0.357336
H	6.48621	3.318856	0.841794
H	6.090339	3.983498	-1.647221
H	5.817962	2.195065	-2.014304
