16

C	1.477955	-0.208198	-0.313447
N	2.816912	-0.163537	0.213578
C	3.506402	1.074658	-0.058494
C	4.948444	1.024988	0.388162
C	5.476326	1.901921	1.257112
C	5.742378	-0.017998	-0.189108
C	6.367586	-0.923801	-0.702868
H	1.02562	-1.191141	-0.111289
H	1.405243	-0.016032	-1.40793
H	0.849132	0.54618	0.188441
H	3.367287	-0.944892	-0.137618
H	2.998161	1.896509	0.473775
H	3.49423	1.348118	-1.141082
H	4.859782	2.689024	1.698685
H	6.528917	1.855305	1.544217
H	6.930644	-1.722885	-1.149023
