19
-1849.44
C          1.43439        0.10652       -0.46575
C          2.94366        0.22312       -0.36797
O          3.28130        1.61005       -0.30951
C          4.62975        1.82827       -0.22660
C          5.16361        3.05661       -0.14448
C          4.33993        4.31289       -0.13118
C          6.64917        3.25882       -0.05942
H          1.12606       -0.94171       -0.51105
H          1.06518        0.62258       -1.35825
H          0.95434        0.57965        0.39727
H          3.40545       -0.23935       -1.24857
H          3.29431       -0.28654        0.53744
H          5.23940        0.93311       -0.23515
H          3.26451        4.11619       -0.17968
H          4.60009        4.94352       -0.98765
H          4.53035        4.87929        0.78640
H          7.19667        2.31035       -0.07218
H          6.90907        3.78099        0.86716
H          6.99989        3.85738       -0.90648
