15

C	0.815599	0.072406	-0.299111
C	2.256129	-0.080397	0.108654
C	2.545771	0.020246	1.59128
N	1.851279	-1.008094	2.342725
C	3.188939	-0.81042	-0.751276
O	3.196757	0.602814	-0.702906
H	0.719965	0.051625	-1.393786
H	0.411815	1.032329	0.061998
H	0.208166	-0.743642	0.121367
H	2.316007	1.062327	1.906369
H	3.631535	-0.105326	1.724855
H	0.868173	-0.76696	2.452123
H	2.226709	-1.067715	3.285876
H	2.829983	-1.253495	-1.690043
H	4.057923	-1.312128	-0.304354
