17
-1672.1
C          2.71355       -0.61929        1.85557
C          2.89806       -0.31575        0.37248
C          3.26851        1.13965        0.08151
O          2.29044        2.00874        0.64589
C          4.66591        1.49509        0.59500
C          5.84377        1.00640       -0.20271
O          4.80993        2.15372        1.62871
H          2.43673       -1.66924        1.99038
H          1.91797       -0.00776        2.29169
H          3.63448       -0.43981        2.41681
H          1.95069       -0.54415       -0.13209
H          3.65525       -0.99200       -0.04007
H          3.25724        1.31391       -1.00078
H          2.65171        2.29824        1.50887
H          5.91180       -0.08165       -0.14132
H          6.76345        1.44363        0.19738
H          5.73701        1.32097       -1.24444
