14
-1515.02
C          1.57470       -0.66604        1.11283
C          2.31996       -0.32644        0.05268
C          3.01527        0.99351       -0.10349
C          4.50362        0.81626       -0.16879
C          5.25611        1.17244       -1.22149
C          6.66697        0.99572       -1.24059
N          7.81767        0.85626       -1.26170
H          1.09191       -1.63762        1.16380
H          1.42861        0.00878        1.95081
H          2.42825       -1.04052       -0.76194
H          2.78077        1.66108        0.73432
H          2.63685        1.48144       -1.00981
H          4.97486        0.37914        0.71153
H          4.80812        1.61386       -2.10511
