14
-1369.8
N          2.33899       -0.71923       -1.25619
C          2.30072        0.09972       -0.17987
N          1.43630        0.04845        0.76438
C          3.36162        1.12375       -0.10937
C          3.49447        2.16840       -1.19420
C          3.00979        2.56693        0.16661
H          2.87228       -0.39424       -2.05438
H          1.47387       -1.17905       -1.50642
H          0.79074       -0.72408        0.59371
H          4.27982        0.76478        0.34611
H          2.77077        2.18482       -2.00084
H          4.49391        2.47123       -1.48420
H          3.67641        3.13026        0.80890
H          1.96212        2.81894        0.28874
