14
-1441.36
C          0.95095       -0.09059       -0.25137
C          2.24590       -0.21924        0.06256
C          3.18058        0.92723       -0.08361
O          2.83903        2.03116       -0.48881
C          4.60767        0.64257        0.21663
C          5.29444        1.43135        1.30305
N          4.91693        0.03999        1.52244
H          0.26657       -0.92480       -0.14201
H          0.54584        0.84886       -0.61854
H          2.64836       -1.15355        0.43417
H          5.20911        0.32793       -0.62814
H          4.71954        2.17689        1.84013
H          6.35031        1.64543        1.19660
H          5.73680       -0.56625        1.45602
