16
-1549.52
C          1.06687       -0.33309       -0.38409
N          2.40223       -0.36040        0.19190
C          3.02009       -1.67228        0.31267
C          3.08250        0.83983        0.34353
O          2.57868        1.93675        0.07993
C          4.52092        0.79231        0.86834
O          5.09273        2.09207        0.97213
H          0.60749        0.65500       -0.29741
H          0.43546       -1.05886        0.13663
H          1.13841       -0.60042       -1.44199
H          2.32407       -2.35038        0.81565
H          3.94787       -1.64381        0.88532
H          3.23473       -2.04810       -0.69223
H          5.14342        0.20950        0.18339
H          4.53063        0.34256        1.86608
H          4.39265        2.71038        0.67498
