13
-1302.5
O          1.14642        0.00154       -0.08327
N          2.51949        0.01043       -0.27879
C          3.19449       -1.05359        0.24864
N          4.41336       -0.85662        0.67194
C          4.60296        0.62236        0.45582
C          3.27521        1.13687       -0.07612
C          2.95871        2.42574       -0.24364
H          0.82803        0.57338       -0.80323
H          2.66230       -2.01663        0.28016
H          4.85724        1.09038        1.41282
H          5.41003        0.77703       -0.26789
H          3.67266        3.20854       -0.01677
H          1.98384        2.72784       -0.61071
