12

O	0.998492	-0.092537	0.096386
C	2.339756	-0.01522	0.005425
C	3.046531	1.185075	-0.079057
C	4.435404	1.135052	-0.168955
C	5.064692	-0.108091	-0.171575
N	4.392074	-1.25533	-0.091205
C	3.07162	-1.213597	-0.005132
H	0.621555	0.793843	0.094243
H	2.516271	2.143348	-0.074808
H	5.021104	2.05459	-0.237073
H	6.155836	-0.179368	-0.242502
H	2.525846	-2.161994	0.061012
