16

O	1.09588	-0.069474	0.051735
C	2.486427	0.011738	0.011326
C	3.087423	1.050304	-0.984052
C	2.704832	0.039311	-2.095036
C	3.118014	-0.969386	-1.007223
N	4.555688	-0.721352	-0.893512
C	4.577508	0.761638	-0.822576
H	0.758868	0.739081	0.450743
H	2.930605	-0.003476	1.030211
H	2.766428	2.102998	-0.998929
H	3.291181	0.039722	-3.026147
H	1.627129	0.023903	-2.29197
H	2.841379	-2.032443	-1.042419
H	4.920137	-1.1276	-0.034577
H	5.186006	1.2012	-1.631561
H	4.974556	1.138554	0.136337
