10
-1124.15
C         -0.74511        1.10538        0.03075
C          0.63829        1.17532        0.03325
N          1.42020        0.07127        0.03576
C          0.75355       -1.10574        0.03567
C         -0.62995       -1.17560        0.03317
N         -1.41189       -0.07170        0.03066
H         -1.35778        1.99934        0.02876
H          1.15772        2.12647        0.03329
H          1.36611       -1.99968        0.03767
H         -1.14952       -2.12679        0.03313
