15

C	1.062868	-0.579362	0.461418
C	2.271498	0.012135	-0.244134
C	3.077956	-1.047288	-1.008983
C	1.862138	1.101819	-1.203691
O	0.742655	1.277	-1.620741
C	2.952867	2.06343	-1.689977
O	4.084826	2.046448	-1.292658
H	0.513177	0.185965	1.029347
H	1.371173	-1.372338	1.158721
H	0.362198	-1.011066	-0.269074
H	2.957336	0.482834	0.483169
H	2.456423	-1.528247	-1.780799
H	3.418121	-1.828872	-0.313661
H	3.96704	-0.615325	-1.489468
H	2.571963	2.799869	-2.442638
