16
-1507.79
C          0.99722        0.01562        0.04144
C          2.51749        0.01260       -0.07839
C          2.96001       -0.69967       -1.35467
O          4.37837       -0.82764       -1.39034
C          3.00631        1.44363       -0.00415
N          3.69497        1.98923       -0.95622
O          4.00605        3.30322       -0.58921
H          0.67702        0.51354        0.96344
H          0.60340       -1.00608        0.05645
H          0.53431        0.54900       -0.79667
H          2.94611       -0.49751        0.79315
H          2.63517       -0.17264       -2.25880
H          2.54383       -1.71165       -1.38994
H          4.72519        0.08435       -1.46394
H          2.76016        2.00298        0.91746
H          4.50586        3.62948       -1.36143
