12
-1249.91
C          1.02840        0.07613       -0.60182
O          2.36358       -0.06408       -0.12418
C          3.04720        1.12311       -0.13333
C          4.37554        1.16827        0.00000
C          5.07854        2.38590        0.00000
C          5.67362        3.41661        0.00000
H          0.56238       -0.91346       -0.60312
H          1.01978        0.46229       -1.62693
H          0.44663        0.72900        0.05783
H          2.43709        2.01164       -0.23844
H          4.93657        0.24575        0.11158
H          6.20752        4.33827        0.00066
