14
-1293.7
C          1.02903        0.07351       -0.14154
C          2.50019       -0.03869        0.08358
C          3.13469       -1.19603        0.33710
S          3.41902        1.44216        0.06427
N          4.85455        1.09741       -0.75234
O          2.76604        2.41954       -0.77803
O          3.83991        1.77568        1.40663
H          0.58260        0.76572        0.57963
H          0.52546       -0.89252       -0.02855
H          0.82116        0.44013       -1.15172
H          2.59546       -2.13727        0.37481
H          4.20504       -1.23596        0.51795
H          5.63405        1.34825       -0.14138
H          4.86634        1.63829       -1.61897
