13
-1374.87
C          0.97483        0.03368       -0.00793
N          2.40887        0.01134        0.00135
C          3.24792        1.10268        0.00306
C          4.51503        0.66733        0.00896
N          4.50784       -0.70402        0.01027
C          3.18092       -1.16810        0.00478
O          2.80995       -2.32705        0.00294
H          0.60197        1.06168        0.00717
H          0.60621       -0.50848        0.86759
H          0.61881       -0.47825       -0.90654
H          2.87936        2.11664        0.00002
H          5.43202        1.23548        0.01196
H          5.30628       -1.31957        0.01354
