17

C	2.087229	-0.586831	-1.351705
C	2.425277	0.010283	0.004174
C	3.243047	1.286223	-0.086745
O	4.421617	0.990823	-0.766288
C	2.434596	2.528669	-0.524877
O	2.356268	2.989283	0.818606
C	3.340904	2.055571	1.247239
H	1.515054	-1.520127	-1.243493
H	3.005883	-0.806642	-1.913631
H	1.480524	0.105855	-1.95768
H	3.005457	-0.711691	0.603988
H	1.508881	0.234549	0.574863
H	4.929249	1.802258	-0.872871
H	1.44262	2.367533	-0.981065
H	3.017892	3.210735	-1.177308
H	4.335506	2.52185	1.399193
H	3.054506	1.521089	2.16951
