16
-1610.96
C          2.20458       -0.54091       -1.38373
C          2.36579        0.06089        0.00266
C          3.30167        1.25794       -0.04499
C          2.74514        2.57169       -0.65106
N          3.24380        3.25368        0.54811
C          3.38896        2.09366        1.24849
O          3.46641        1.90656        2.43689
H          1.55572       -1.42101       -1.34392
H          3.17261       -0.84717       -1.79374
H          1.76043        0.18007       -2.07747
H          2.77553       -0.69954        0.67731
H          1.38294        0.34593        0.39520
H          4.30209        0.99130       -0.41291
H          1.65756        2.64541       -0.74806
H          3.23333        2.90750       -1.56905
H          2.84947        4.04223        1.04142
