17

C	2.514864	0.895526	1.941179
O	2.552801	0.810791	0.540599
C	2.953804	1.95854	-0.083739
O	4.309437	2.20005	0.212774
C	4.897762	3.311063	-0.281641
C	6.311432	3.402321	0.190849
C	4.306364	4.206771	-1.089494
H	2.122198	-0.05827	2.317967
H	1.848123	1.71297	2.279353
H	3.517735	1.064747	2.368043
H	2.356218	2.840418	0.239894
H	2.824082	1.809562	-1.170636
H	6.341446	3.424706	1.29189
H	6.809265	4.297741	-0.200867
H	6.872435	2.510009	-0.129146
H	3.276266	4.117112	-1.43414
H	4.874697	5.070942	-1.432964
