14
-1361.23
C          0.89515       -0.21686       -0.13684
C          2.30859       -0.69727       -0.01918
C          2.68215       -1.94916       -0.32963
O          3.18248        0.25745        0.54171
C          4.42043        0.38329        0.01230
N          5.28229        1.17714        0.55035
O          6.47388        1.12754       -0.18694
H          0.84043        0.62725       -0.83242
H          0.52597        0.11462        0.83901
H          0.22208       -0.99973       -0.50248
H          1.96736       -2.66645       -0.72194
H          3.69548       -2.30464       -0.17650
H          4.60984       -0.21769       -0.89165
H          7.04258        1.75526        0.29872
