14
-1408.81
C          1.08405       -0.05885        0.51787
C          2.52000        0.00000        0.00000
N          2.56770       -0.58475       -1.33601
C          2.71118       -1.91021       -1.56915
N          2.57255       -2.48093       -2.70784
C          3.00202        1.36117        0.00000
N          3.38623        2.44616        0.00000
H          1.01116        0.36006        1.52804
H          0.72220       -1.09253        0.55536
H          0.40073        0.50649       -0.12748
H          3.15330       -0.59164        0.67267
H          2.23763        0.00232       -2.09325
H          2.96979       -2.50904       -0.67872
H          2.34801       -1.79088       -3.42668
