20

C	0.998635	-0.03799	-0.055913
C	2.510599	-0.04912	0.059707
N	3.052276	1.289158	0.007824
C	4.488719	1.360861	0.118718
C	4.979528	2.80257	0.03814
C	6.470453	2.911287	0.021932
C	7.213553	3.527814	0.942142
H	0.590953	-1.059498	-0.060658
H	0.686764	0.469844	-0.980999
H	0.53828	0.496973	0.791459
H	2.940591	-0.623327	-0.780831
H	2.811019	-0.602963	0.980049
H	2.62217	1.86152	0.732974
H	4.928852	0.781051	-0.713544
H	4.885961	0.892744	1.049426
H	4.571148	3.382208	0.884851
H	4.556358	3.246081	-0.88069
H	6.974897	2.424657	-0.824103
H	6.756859	4.023903	1.805399
H	8.303995	3.565636	0.867967
