15

O	1.296815	0.335267	0.503378
C	2.582769	0.001004	0.06334
C	2.7242	-1.463646	-0.405705
C	2.598268	-1.478006	-1.941239
C	2.906064	-0.054966	-2.3572
O	1.84913	0.849122	-2.067993
C	2.955256	0.814284	-1.176913
H	0.775635	0.467048	-0.302339
H	3.269568	0.211016	0.898364
H	1.989928	-2.097115	0.112018
H	3.726137	-1.827974	-0.126661
H	3.291422	-2.191721	-2.411038
H	1.584249	-1.741674	-2.282454
H	3.460981	0.162821	-3.277714
H	3.544928	1.736289	-1.113432
