13
-1389.39
O          1.41158        0.30356        0.82853
C          2.40735       -0.00901        0.19691
C          2.88637       -1.41399       -0.09132
C          4.06926       -1.25717       -1.06144
C          4.43682        0.19256       -1.05227
O          3.52262        1.05134       -1.73534
C          3.39110        0.96509       -0.30963
H          2.08516       -2.01497       -0.52788
H          3.21797       -1.86447        0.84992
H          4.90833       -1.88576       -0.74705
H          3.78016       -1.56927       -2.07115
H          5.48300        0.44533       -0.99304
H          3.67127        1.80720        0.30406
