16

O	0.562478	0.145944	-0.412872
C	1.902282	-0.271071	-0.418757
C	2.776576	0.938423	-0.162245
C	4.272246	0.627326	-0.188412
C	4.708072	-0.299503	0.903795
C	5.32466	-1.469998	0.733273
H	0.002718	-0.624203	-0.545837
H	2.190038	-0.724285	-1.391951
H	2.100315	-1.040291	0.354915
H	2.492264	1.371288	0.81258
H	2.536823	1.702224	-0.919848
H	4.82522	1.577765	-0.088957
H	4.555583	0.206817	-1.168781
H	4.48476	0.035762	1.926237
H	5.565542	-1.846216	-0.266648
H	5.617993	-2.092772	1.582518
