15
-1447.98
C          0.99512       -0.01830       -0.04761
C          2.51861        0.03124       -0.03133
O          3.02615       -1.09839       -0.76443
N          3.30462       -0.67315       -2.08857
C          3.31779        0.61761       -2.07208
C          3.08684        1.25378       -0.74413
N          4.38386        1.71877       -0.23116
H          0.57040        0.82134        0.51039
H          0.64241       -0.95202        0.40293
H          0.60226        0.00486       -1.06925
H          2.86839       -0.03967        1.00480
H          3.52501        1.23129       -2.95980
H          2.38668        2.08926       -0.81578
H          5.02388        0.92046       -0.19697
H          4.27702        2.01955        0.73716
