17

C	0.357893	-0.880613	1.136852
C	1.688464	-1.238461	0.48507
C	1.688267	-2.659053	-0.065575
C	2.01098	-0.218881	-0.599558
O	3.263113	-0.482147	-1.238384
C	4.357499	-0.03498	-0.627999
O	4.391026	0.572287	0.403952
H	0.374344	0.132087	1.569029
H	0.11698	-1.585785	1.946359
H	-0.46686	-0.922825	0.40506
H	2.481185	-1.150296	1.248583
H	0.895641	-2.787553	-0.822454
H	1.509267	-3.392241	0.735466
H	2.648098	-2.904248	-0.543599
H	2.029114	0.797528	-0.176874
H	1.264044	-0.261523	-1.407332
H	5.247694	-0.309817	-1.232767
