14
-1384.91
C          1.52329       -0.34238       -1.05028
C          1.83190        0.48139        0.16430
O          1.24653        0.37380        1.23373
C          2.93168        1.51254        0.02090
C          2.71544        2.83006        0.71298
N          3.98743        1.18281       -0.66430
O          4.91940        2.22692       -0.68615
H          1.30949        0.31402       -1.89760
H          0.63922       -0.95626       -0.85641
H          2.36444       -1.00107       -1.28010
H          1.68224        2.92932        1.05434
H          2.92515        3.65222        0.02363
H          3.38389        2.89880        1.57529
H          5.66513        1.83873       -1.18238
