17
-1716.48
O          0.72465        0.00853       -0.12604
C          2.11974        0.02944        0.19791
C          3.01689       -0.84639       -0.63080
C          2.58340       -1.46978       -1.92759
C          2.86121       -0.38376       -2.97145
C          2.63117        0.93827       -2.23246
C          3.04375        0.64359       -0.81716
H          0.30082        0.85098        0.11088
H          2.38360        0.14495        1.24509
H          3.86754       -1.32761       -0.16975
H          3.14919       -2.38013       -2.14887
H          1.51916       -1.72785       -1.90582
H          3.91130       -0.44425       -3.28435
H          2.23731       -0.48441       -3.86371
H          3.23160        1.74171       -2.67068
H          1.57803        1.23527       -2.28210
H          3.91805        1.18730       -0.48778
