15
-1510.34
C          0.96903       -0.02646        0.13979
C          2.45780        0.13108       -0.08428
C          3.19635        1.10739        0.83751
C          4.12715       -0.07987        1.12117
O          3.19127       -0.99285        0.47246
C          5.54493       -0.06949        0.47766
O          5.89545        0.52417       -0.54323
H          0.57650       -0.86080       -0.45014
H          0.43623        0.88005       -0.16442
H          0.73780       -0.21891        1.19267
H          2.70602        0.25541       -1.14584
H          2.63394        1.45345        1.70974
H          3.64853        1.96462        0.33218
H          4.18785       -0.31420        2.19147
H          6.29195       -0.65333        1.04026
