16
-1632.12
C         -1.00480       -0.01656        1.05808
C         -0.54295       -1.07334        0.00397
C         -1.05491        0.00791       -1.00099
N         -0.67973        1.04135        0.03246
C          0.79927        1.23550       -0.00123
C          1.59923       -0.05208       -0.03601
C          0.94334       -1.22345       -0.03396
H         -0.44768        0.03638        2.00046
H         -2.07342       -0.06543        1.30737
H         -1.07504       -2.02746        0.00559
H         -2.13442       -0.03563       -1.19911
H         -0.54425        0.08355       -1.96782
H          1.05341        1.83639       -0.88222
H          1.09630        1.81546        0.88035
H          2.68177       -0.00220       -0.06170
H          1.42573       -2.19164       -0.05723
