13
-1221.07
C          1.10135       -0.27116        0.03713
C          2.54846        0.16269       -0.08277
S          2.71474        1.92940        0.07636
O          2.10802        2.57433       -1.07229
O          2.37775        2.32018        1.43252
C          4.45558        2.21289       -0.07860
O          5.22141        1.29857       -0.37050
H          1.02120       -1.35835       -0.05574
H          0.48767        0.18534       -0.74578
H          0.68063        0.02158        1.00427
H          2.95054       -0.12269       -1.05911
H          3.14974       -0.29829        0.70684
H          4.79443        3.24307        0.10581
