13

C	1.761199	-0.237934	-1.295078
C	2.236462	0.162786	-0.115183
C	3.336266	1.137543	0.081253
N	3.888263	1.928034	-0.989735
C	3.037077	2.605557	-0.024165
C	3.65534	3.566887	0.859979
N	4.130019	4.333942	1.585641
H	0.937199	-0.952211	-1.36182
H	2.175732	0.115752	-2.244905
H	1.809624	-0.244682	0.80805
H	4.074616	0.850648	0.840975
H	3.382225	1.793176	-1.864387
H	2.011479	2.863652	-0.314355
