19

C	0.75887	0.736276	-0.285228
C	2.19507	0.770987	0.120897
C	3.222726	1.077688	-0.680952
C	4.661654	1.154261	-0.261807
C	5.578745	0.425904	-1.237968
C	5.064041	2.628409	-0.115745
O	4.297539	3.302795	0.836022
H	0.332284	-0.271738	-0.147377
H	0.624874	1.021649	-1.339274
H	0.151007	1.416748	0.333803
H	2.414915	0.500832	1.162934
H	3.015684	1.345986	-1.728055
H	4.758046	0.700448	0.74049
H	5.509174	0.863393	-2.247678
H	5.31104	-0.638097	-1.316853
H	6.630734	0.490182	-0.917988
H	5.01117	3.11339	-1.115785
H	6.11639	2.689779	0.208629
H	3.373654	3.084249	0.655615
