16
-1554.79
C          2.32475       -1.13336        0.77667
C          3.78306       -0.91422        0.42615
O          3.97099        0.46641        0.12223
C          5.32515        0.73787       -0.24569
C          5.55529        2.22396       -0.52094
N          4.45814        3.01830       -0.35600
O          6.63815        2.68806       -0.86214
H          2.13694       -2.18110        1.02751
H          1.68043       -0.84996       -0.06209
H          2.03395       -0.50809        1.62722
H          4.05350       -1.52609       -0.44151
H          4.41592       -1.19421        1.27553
H          5.57229        0.18602       -1.15876
H          5.99484        0.44302        0.56922
H          3.57658        2.59730       -0.08404
H          4.52768        4.01116       -0.52299
