20
-1915.1
C          0.83326       -0.06821       -0.02627
C          2.32066       -0.22769       -0.34430
C          2.51983       -0.61869       -1.80933
C          3.11511        1.02451        0.02836
C          2.79596        2.29518       -0.72150
C          3.57649        1.15729        1.46794
N          4.52060        0.80775        0.41640
H          0.68580        0.22423        1.01878
H          0.30033       -1.01076       -0.19136
H          0.36288        0.69389       -0.65618
H          2.68762       -1.06779        0.26200
H          2.09492        0.12650       -2.48977
H          2.03403       -1.57712       -2.02178
H          3.58411       -0.72043       -2.04649
H          3.39964        3.13947       -0.36861
H          1.74605        2.57286       -0.58968
H          2.99400        2.17937       -1.79135
H          3.33718        0.36743        2.17022
H          3.67920        2.14199        1.90734
H          5.10180        1.60778        0.16051
