17
-1654.05
C          1.00804        0.05733       -0.22122
C          2.50389       -0.05335        0.02670
C          2.91081       -1.30327        0.79734
N          2.87457       -0.80040        2.17232
C          3.54773       -1.67256        3.12238
N          3.14675        0.52973        2.22594
C          2.92765        0.97447        1.03179
H          0.66457       -0.74600       -0.88144
H          0.76595        1.01575       -0.69392
H          0.43249        0.00105        0.70993
H          3.07112        0.06393       -0.90080
H          3.92846       -1.59747        0.51379
H          2.23397       -2.14882        0.63781
H          3.16774       -2.69740        3.04970
H          3.36153       -1.33111        4.14676
H          4.63073       -1.68658        2.95828
H          3.02428        2.03208        0.74940
