13

C	0.910849	0.048834	0.021696
C	2.398707	0.038237	0.0058
C	3.295386	1.060885	-0.033667
O	4.545188	0.602389	-0.011945
N	4.529288	-0.767482	0.033445
C	3.262069	-1.108183	0.053562
N	2.860587	-2.417246	0.174462
H	0.517766	1.07442	0.041936
H	0.520094	-0.480515	0.906068
H	0.48891	-0.4471	-0.869044
H	3.178502	2.143386	-0.073287
H	2.007018	-2.65236	-0.316399
H	3.601006	-3.091577	0.016933
