17
-1679.87
C          1.09360       -0.30176        0.01611
O          2.48627       -0.03634        0.01752
C          2.89401        1.33855        0.00000
C          2.39941        2.04866       -1.26815
C          2.39903        2.08003        1.25107
C          4.33801        1.33855        0.00000
C          5.52817        1.33855        0.00000
H          0.96045       -1.38751        0.03366
H          0.61515        0.07551       -0.89086
H          0.60708        0.10573        0.90545
H          2.65794        1.47410       -2.16648
H          2.83475        3.05060       -1.36840
H          1.30977        2.16464       -1.26931
H          2.65778        1.52743        2.16209
H          1.31000        2.19539        1.24856
H          2.83445        3.08338        1.32578
H          6.59344        1.32734        0.00015
