11

C	2.809298	-1.068702	0.382531
C	2.239119	0.108332	0.106157
C	2.983055	1.363117	0.01984
N	2.353692	2.48944	-0.249095
S	3.465214	3.711541	-0.276828
C	4.752519	2.62413	0.0821
N	4.34187	1.402001	0.213496
H	2.215053	-1.983578	0.437347
H	3.885387	-1.139769	0.561598
H	1.164945	0.196941	-0.07488
H	5.794859	2.937667	0.186253
