13
-1417.93
C          1.05608        0.05621       -0.01984
C          2.53798       -0.04515       -0.07881
C          3.28257       -1.14199       -0.01602
C          4.70461       -0.75812       -0.12054
C          4.56335        0.74019       -0.25652
O          5.50511        1.51392       -0.38072
O          3.24828        1.14398       -0.22427
H          0.58652       -0.93176        0.02405
H          0.67444        0.57224       -0.90632
H          0.74905        0.61862        0.86711
H          2.91909       -2.15280        0.09382
H          5.25713       -1.00795        0.78782
H          5.17083       -1.17999       -1.01350
