20
-1860.48
C          1.80320        0.75588       -1.09882
C          3.29239        1.00853       -0.92063
N          3.49878        2.29735       -0.25671
C          4.93710        2.56927       -0.08900
C          5.19515        3.96235        0.52042
C          4.78762        5.10364       -0.40430
O          4.48785        4.08863        1.75783
H          1.64055       -0.21400       -1.57977
H          1.34520        1.52570       -1.72901
H          1.28239        0.74564       -0.13552
H          3.77306        1.00424       -1.90548
H          3.72669        0.19716       -0.32488
H          3.07617        2.25030        0.67158
H          5.45589        2.49943       -1.05248
H          5.35935        1.81136        0.58227
H          6.26303        4.05311        0.74821
H          3.71049        5.09618       -0.60312
H          5.32129        5.05182       -1.35785
H          5.00866        6.06760        0.06700
H          3.54507        4.14922        1.52208
