15

C	1.661149	-0.125388	-0.050421
C	0.726379	-1.164399	0.55309
O	-0.404499	-1.430133	-0.253393
C	-1.418889	-0.533628	-0.143874
C	-1.30978	0.780356	0.110922
O	-0.15948	1.497581	0.212
C	0.898031	1.063533	-0.620863
H	2.263189	-0.569632	-0.860066
H	2.364546	0.200364	0.733451
H	1.248795	-2.124069	0.68362
H	0.38394	-0.829207	1.548561
H	-2.407148	-0.979088	-0.282343
H	-2.210514	1.381539	0.256498
H	1.568046	1.926985	-0.749538
H	0.487195	0.805826	-1.613795
