13

C	2.461789	-1.000871	0.79308
C	3.309165	-0.025996	1.124978
C	3.381125	1.314532	0.445767
C	2.873252	2.376332	1.414029
O	3.54438	3.26344	1.861874
C	4.795757	1.631737	-0.00391
O	5.096208	1.84068	-1.14515
H	2.448849	-1.948763	1.336865
H	1.757113	-0.88985	-0.037097
H	4.003496	-0.17225	1.962307
H	2.726806	1.323995	-0.442895
H	1.797856	2.24614	1.70043
H	5.555446	1.648613	0.81774
