13

C	1.561407	-0.536314	0.993353
C	2.420758	-0.117511	0.066238
C	3.174506	1.185371	0.132658
C	4.618203	1.007904	0.057357
C	5.822492	0.835042	-0.008682
C	7.178408	0.640212	-0.083183
C	8.380759	0.464098	-0.150698
H	1.034373	-1.488209	0.890745
H	1.353454	0.054209	1.891787
H	2.619104	-0.735661	-0.817002
H	2.917751	1.727403	1.059385
H	2.859694	1.83804	-0.703667
H	9.441762	0.305966	-0.210722
