17

C	0.390062	0.231633	0.13269
C	1.86413	-0.065504	0.138385
C	2.529551	-0.729541	-1.031292
C	2.798964	0.717888	-0.731875
N	4.080908	1.047083	-0.213953
N	4.149122	2.021887	0.693332
C	5.261948	2.59736	0.927769
H	0.153723	1.065492	0.812101
H	-0.195654	-0.644462	0.45313
H	0.043232	0.510866	-0.87454
H	2.287303	-0.31592	1.116326
H	1.924206	-0.962243	-1.912098
H	3.33923	-1.435117	-0.828785
H	2.332209	1.458735	-1.399764
H	4.863081	0.95946	-0.867032
H	5.295047	3.363851	1.706837
H	6.195959	2.352073	0.3895
