18

N	1.959059	-0.260025	-1.328312
C	2.436988	0.13593	-0.018254
C	3.158906	1.468722	-0.099117
C	2.30283	2.651036	-0.541078
C	3.010325	3.813387	0.145484
C	3.423016	3.173094	1.466318
O	3.651193	1.806875	1.186483
H	1.393405	-1.102504	-1.263289
H	2.744495	-0.493283	-1.933944
H	3.11727	-0.587806	0.478045
H	1.574332	0.263827	0.657964
H	4.019596	1.360106	-0.795803
H	1.278327	2.532804	-0.149733
H	2.23071	2.740503	-1.633165
H	3.900982	4.114353	-0.43031
H	2.378967	4.704404	0.277753
H	4.33723	3.616687	1.895134
H	2.618899	3.273177	2.222154
