21
-2046.34
C          0.98158        2.82310       -0.57943
C          2.46124        2.88954       -0.23389
C          3.10747        1.50362       -0.26809
C          4.58846        1.54723        0.06289
C          4.91365        1.74562        1.52270
C          5.50999        0.64115       -0.72842
C          5.53834        2.12318       -0.96645
H          0.54266        3.82537       -0.56021
H          0.43989        2.20094        0.13966
H          0.83049        2.40526       -1.57945
H          2.57500        3.34058        0.75871
H          2.96584        3.55679       -0.94339
H          2.95672        1.06634       -1.26295
H          2.60112        0.83823        0.44152
H          5.99447        1.75220        1.70166
H          4.48158        0.93704        2.12065
H          4.51406        2.69652        1.88619
H          5.08791        0.01170       -1.50509
H          6.36010        0.19269       -0.22601
H          6.40455        2.67692       -0.62150
H          5.13384        2.49098       -1.90310
