19

C	0.944302	-0.13401	0.163622
C	2.443313	-0.081879	0.060866
C	3.061632	-1.45277	0.120237
C	3.141859	1.070379	-0.048219
C	2.52295	2.438948	-0.134193
C	4.648211	1.131402	-0.114803
O	5.112101	1.697731	-1.321644
H	0.46406	0.850317	0.199565
H	0.645534	-0.683049	1.07355
H	0.514568	-0.694023	-0.685307
H	2.566571	-2.123379	-0.602109
H	2.904676	-1.906262	1.114821
H	4.138044	-1.474816	-0.088094
H	1.458775	2.433238	-0.399297
H	3.062301	3.028292	-0.891204
H	2.632824	2.978964	0.823183
H	5.110005	0.147469	0.071862
H	5.012752	1.800436	0.683876
H	4.740722	1.174723	-2.040633
