12
-1307.56
C          0.99636       -0.04102       -0.00697
C          2.46444        0.10858        0.00040
C          3.31037        1.19697        0.00265
C          4.62724        0.67686        0.01033
C          4.49863       -0.69210        0.01219
O          3.18776       -1.04612        0.00611
H          0.50228        0.93543        0.00155
H          0.66372       -0.59917        0.87356
H          0.67106       -0.58017       -0.90195
H          3.01277        2.23617       -0.00083
H          5.55573        1.22977        0.01403
H          5.20302       -1.51176        0.01729
