18
-1715.42
C          2.43667       -1.59057       -0.37247
C          1.88149       -0.18730       -0.18041
C          2.94042        0.80695        0.22933
C          3.68732        0.58316        1.51812
N          2.76944        0.65518        2.64949
C          3.55487        1.69906       -0.83219
O          2.52639        2.17672        0.04485
H          1.66657       -2.24846       -0.78526
H          2.76567       -2.01995        0.58056
H          3.29071       -1.58758       -1.05471
H          1.07984       -0.20957        0.56663
H          1.41508        0.13083       -1.12160
H          4.46890        1.34089        1.64743
H          4.18817       -0.39065        1.50817
H          2.28772        1.55331        2.60489
H          3.30658        0.66468        3.51467
H          3.29128        1.54204       -1.86912
H          4.55519        2.08501       -0.68240
