15
-1452.81
C          0.95171        0.24011       -0.28950
O          2.37945        0.21494       -0.38484
C          3.06809        1.33836       -0.16539
N          4.36423        1.34926       -0.14658
N          4.71888        2.62848        0.14024
C          3.62075        3.55488       -0.10813
C          2.41061        2.65454        0.07222
H          0.59314       -0.79122       -0.34267
H          0.52938        0.79748       -1.13002
H          0.63171        0.66648        0.66548
H          5.59025        2.90077       -0.31733
H          3.66876        3.93307       -1.13568
H          3.62246        4.40096        0.58381
H          1.63227        2.87298       -0.66157
H          2.01847        2.69044        1.09256
