18

C	-1.750199	0.713907	0.279843
C	-1.778703	-0.717426	-0.348147
C	-0.291927	-0.800494	0.063066
C	1.059088	-1.197445	-0.493863
N	1.899643	-0.068941	-0.020653
C	1.093853	1.025771	0.567046
C	-0.245177	0.704766	-0.057671
H	-2.380034	1.496533	-0.168736
H	-1.941614	0.672039	1.363902
H	-1.912188	-0.66598	-1.440458
H	-2.477789	-1.45875	0.067133
H	-0.286669	-1.03411	1.1448
H	1.443328	-2.161151	-0.121823
H	1.048937	-1.249204	-1.599216
H	2.65567	-0.367666	0.582844
H	1.033626	0.988046	1.673492
H	1.510669	2.007057	0.284213
H	-0.168524	0.942649	-1.135121
