15
-1497.58
C          0.86684       -1.17015        0.85614
C          1.19576       -0.32723       -0.35466
C          1.01341        1.14419       -0.44012
C         -0.20330        1.61120        0.31453
C         -1.30370        0.61290        0.15681
N         -1.15872       -0.64828       -0.11130
N          0.04614       -1.21825       -0.35874
H          1.46284       -2.05670        1.03634
H          0.45523       -0.72006        1.74928
H          2.02940       -0.65516       -0.96676
H          1.90605        1.65832       -0.06752
H          0.91160        1.41754       -1.49787
H          0.00072        1.71104        1.38632
H         -0.54193        2.58658       -0.04806
H         -2.32570        0.97327        0.36110
