17
-1631.81
C          6.71494       -0.21516        0.89289
N          6.11795        1.10885        0.75053
N          4.87192        1.12690        0.22011
C          4.42348        2.32182       -0.00162
C          3.06012        2.53081       -0.61033
C          2.18615        3.23267        0.38593
C          1.63993        4.43893        0.18926
H          7.73195       -0.12286        1.28469
H          6.77191       -0.72100       -0.07589
H          6.13309       -0.83475        1.58263
H          6.14346        1.57712        1.66006
H          5.01563        3.22944        0.22074
H          2.61712        1.56637       -0.87757
H          3.18660        3.12093       -1.52391
H          1.98055        2.70436        1.31558
H          1.80107        5.00040       -0.72718
H          1.00269        4.89177        0.94438
