15
-1612.57
C          0.82030        0.17089       -0.07233
C          2.28916        0.16780       -0.34783
C          3.17493        0.92850        0.31583
C          4.61128        0.96678        0.09139
C          5.39641        1.77223        0.82307
C          5.21960        0.15014       -0.91105
C          5.73730       -0.53240       -1.75086
H          0.49410       -0.83239        0.21820
H          0.27325        0.46316       -0.97382
H          0.54946        0.86358        0.73068
H          2.61709       -0.50292       -1.13836
H          2.80234        1.58590        1.10033
H          4.99642        2.41658        1.59872
H          6.47033        1.80921        0.66451
H          6.19666       -1.13894       -2.49701
