17
-1708.02
O          1.17044        0.97668        1.08587
C          2.57369        1.17315        1.23105
C          3.22843        1.18289       -0.14919
C          4.72464        1.40742       -0.08490
C          5.56638        0.36081       -0.15573
C          5.26931        2.75339        0.02129
C          4.57378        3.89630        0.07853
H          0.79452        0.95848        1.98254
H          2.97218        0.35693        1.84271
H          2.73386        2.11763        1.75964
H          2.74505        1.92547       -0.79664
H          3.00896        0.22511       -0.64190
H          5.19553       -0.65605       -0.24638
H          6.64497        0.48034       -0.12527
H          6.35620        2.83307        0.04981
H          3.49063        3.93579        0.05006
H          5.09391        4.84732        0.14875
