15

C	0.983953	-0.126133	-0.021074
C	2.497448	-0.024001	0.05865
C	3.01178	1.4297	0.038834
N	2.528422	2.284935	1.110176
C	4.47907	1.439532	0.019491
C	5.689384	1.408143	0.008338
H	0.65395	-1.175196	-0.018218
H	0.597152	0.341354	-0.941663
H	0.498186	0.369552	0.834269
H	2.959089	-0.570953	-0.780241
H	2.867817	-0.507301	0.980041
H	2.675139	1.887657	-0.911289
H	2.76757	1.883633	2.015895
H	1.515573	2.367056	1.071232
H	6.763596	1.390943	-0.001523
