17
-1584.35
N          1.57069       -0.16056        1.18693
C          2.25631        0.16980       -0.05793
C          3.27477        1.22138        0.22120
O          3.42868        2.20587       -0.81364
C          2.87030        2.65892        0.42802
C          3.73814        3.57560        1.22146
N          3.25973        4.94302        1.05482
H          0.88332       -0.89000        0.99933
H          1.03251        0.64982        1.49410
H          1.52611        0.50094       -0.80452
H          2.75139       -0.72500       -0.44897
H          4.16237        0.84191        0.70960
H          1.81561        2.89524        0.47701
H          4.78595        3.51058        0.90527
H          3.68840        3.30308        2.28057
H          3.34803        5.19840        0.07090
H          3.87735        5.57359        1.56373
