13

C	2.860067	-1.196934	-0.327427
O	2.279553	-0.015597	0.151297
C	3.093808	1.101615	0.055876
C	2.579845	2.310586	0.778355
N	2.627244	3.365336	0.06125
N	3.098201	3.016216	-1.243394
C	3.317805	1.75857	-1.283106
H	2.142426	-2.009506	-0.150666
H	3.802354	-1.434407	0.203817
H	3.075668	-1.1513	-1.411126
H	4.114074	0.90031	0.471437
H	2.243524	2.327414	1.818329
H	3.69368	1.278527	-2.191002
