16

N	0.925003	0.029098	-0.121371
C	2.079418	-0.006419	-0.197376
C	3.534845	-0.0276	-0.281142
C	4.19454	1.234128	0.285687
C	5.696602	1.163444	0.198861
C	6.547591	1.923137	1.171129
C	6.474427	0.426157	1.252886
H	3.816108	-0.1654	-1.338308
H	3.901092	-0.918257	0.255619
H	3.888075	1.362966	1.33685
H	3.820244	2.117859	-0.256609
H	6.086138	1.08891	-0.823693
H	6.039028	2.504506	1.946235
H	7.47117	2.379087	0.805917
H	7.348125	-0.156167	0.949496
H	5.912675	-0.011479	2.084338
