15
-1639.01
C          1.48365       -0.40651       -1.11242
C          2.08231        0.12238       -0.03486
C          3.23366        1.09473        0.00736
C          2.80706        2.43450        0.55302
C          3.08433        3.40365       -0.33415
C          3.69953        2.82078       -1.49957
C          3.79941        1.49402       -1.33260
H          0.65712       -1.10161       -0.99944
H          1.78462       -0.15713       -2.12456
H          1.70812       -0.17878        0.94288
H          4.03326        0.67613        0.62982
H          2.35276        2.58546        1.52079
H          2.89079        4.45839       -0.21151
H          4.02857        3.38439       -2.35923
H          4.23591        0.80521       -2.03953
