16

C	2.628573	-1.176846	0.228763
O	3.816159	-0.460024	0.398089
C	3.735975	0.877178	-0.033145
C	5.068528	1.567265	0.179791
C	6.218392	1.105932	-0.70825
N	6.276506	-0.233245	-0.911329
O	7.023444	1.889266	-1.170094
H	2.792251	-2.196601	0.604127
H	2.326492	-1.234176	-0.835228
H	1.79377	-0.723696	0.797391
H	2.947697	1.407855	0.536815
H	3.445612	0.91952	-1.103511
H	5.371789	1.431003	1.232399
H	4.963444	2.647225	0.008404
H	5.586026	-0.843544	-0.487164
H	7.035782	-0.600735	-1.468886
