18
-1705.73
C          1.44792       -0.38437       -0.08553
O          2.85190       -0.18300       -0.15720
C          3.19605        1.17900        0.10177
C          4.70265        1.31677        0.05357
C          5.44202        0.64604        1.18045
C          5.36308        1.37218       -1.30667
N          5.25641        2.57346       -0.48428
H          1.23668       -1.43056       -0.32375
H          0.92874        0.25022       -0.81085
H          1.08373       -0.17666        0.92555
H          2.82969        1.47273        1.09288
H          2.71758        1.82060       -0.64816
H          6.52068        0.83022        1.13447
H          5.28841       -0.43725        1.14597
H          5.08099        1.01382        2.14607
H          4.73420        1.33695       -2.18792
H          6.35206        0.94924       -1.43140
H          6.15449        2.79477       -0.05103
