14
-1364.28
C          1.63990       -0.17563       -0.14674
C          0.76897       -1.11711        0.67087
O         -0.46220       -1.42960        0.00471
C         -1.41821       -0.48176       -0.15725
N         -1.36609        0.80028        0.00892
O         -0.12872        1.31923        0.43004
C          0.88726        1.08165       -0.54352
H          2.01095       -0.67043       -1.05144
H          2.51822        0.09188        0.45280
H          1.30098       -2.06248        0.82230
H          0.55086       -0.72006        1.66951
H         -2.34310       -0.95811       -0.51831
H          1.56346        1.94218       -0.55672
H          0.45755        0.99464       -1.54899
