17

C	1.737459	-1.065264	0.60707
C	3.221992	-0.755326	0.505052
C	3.498751	0.656725	-0.017891
C	4.951838	0.950548	-0.158605
C	5.62444	1.933471	0.459764
C	7.065345	2.120605	0.252942
O	7.728028	2.981345	0.777754
H	1.564927	-2.082753	0.988528
H	1.243209	-0.989633	-0.374904
H	1.227771	-0.364573	1.287625
H	3.714369	-1.489792	-0.155996
H	3.700861	-0.870008	1.492377
H	3.023739	1.403078	0.639964
H	3.020758	0.762126	-1.010185
H	5.518744	0.282441	-0.824442
H	5.130737	2.636097	1.140444
H	7.530591	1.380242	-0.453086
