17
-1714.71
C          0.97973        0.02783       -0.02476
C          2.49443        0.03728        0.01964
C          3.14916        1.05775        0.98230
C          4.21791       -0.01162        1.28058
C          3.17419       -1.08200        0.86791
C          3.68548       -2.33449        0.11952
O          4.40888       -2.35344       -0.87609
H          0.61736       -0.82729       -0.60443
H          0.60295        0.93971       -0.49920
H          0.54542       -0.03553        0.97855
H          2.90864        0.10773       -0.99632
H          2.53770        1.31858        1.85442
H          3.51732        1.97747        0.52015
H          5.09307        0.04491        0.62289
H          4.55800       -0.05716        2.31854
H          2.55627       -1.38245        1.72809
H          3.34526       -3.29080        0.55264
