19

C	1.046579	-0.015407	-0.185599
C	2.548183	0.010419	0.015249
C	3.070478	1.13009	0.923047
N	4.221116	0.559119	1.61701
C	4.503282	-0.766063	1.11152
C	3.133998	-1.259821	0.661871
N	3.197073	-2.457987	-0.139378
H	0.747594	-0.872853	-0.810577
H	0.679603	0.896084	-0.683274
H	0.523556	-0.102465	0.780959
H	3.03988	0.102486	-0.972995
H	2.287808	1.436061	1.644625
H	3.321023	2.033909	0.33693
H	5.027241	1.169455	1.658942
H	5.19001	-0.789011	0.23369
H	4.943231	-1.421043	1.881587
H	2.542366	-1.488696	1.568277
H	3.639724	-2.26	-1.036432
H	2.262715	-2.802886	-0.34617
