17

C	0.991602	-0.150591	0.141077
C	2.479392	-0.028025	-0.185084
C	2.989748	1.333789	-0.063908
C	3.391661	2.472341	0.048893
C	3.858075	3.851591	0.175519
C	2.800303	4.863465	-0.174462
C	2.397737	5.848849	0.626491
H	0.656117	-1.193573	0.038646
H	0.387317	0.47265	-0.534221
H	0.786714	0.177099	1.17099
H	2.669564	-0.393287	-1.209433
H	3.063653	-0.688347	0.478921
H	4.729111	3.992156	-0.491543
H	4.224922	4.032431	1.200106
H	2.349002	4.751595	-1.16737
H	2.818305	5.982158	1.628654
H	1.630217	6.560791	0.310911
