16
-1570.67
C          1.00000        0.00000        0.00000
C          2.44400        0.00000        0.00000
C          3.63416        0.00000        0.00000
C          5.07816        0.00000        0.00000
O          5.55830       -0.64145       -1.18371
C          5.64932        1.43581        0.04649
N          7.11664        1.42943       -0.10981
H          0.60602        1.02088        0.01167
H          0.60593       -0.52052        0.87825
H          0.60596       -0.50029       -0.88995
H          5.45972       -0.57201        0.85337
H          6.44041       -0.24374       -1.32980
H          5.37522        1.93337        0.98343
H          5.23535        2.02663       -0.77958
H          7.53950        1.00556        0.71748
H          7.44569        2.39597       -0.12155
