18
-1770.09
N          1.01927       -0.00710       -0.07038
C          2.47853       -0.07939       -0.06583
C          3.17418       -0.72859       -1.21866
C          3.26115        0.76949       -1.04439
C          4.54155        1.49299       -0.63080
C          5.92367        0.99962       -0.98603
C          5.38737        2.23681       -1.63773
H          0.69649        0.76556        0.51135
H          0.61615       -0.85291        0.33169
H          2.92411       -0.23031        0.91527
H          2.57703       -1.10186       -2.04293
H          4.04868       -1.32958       -1.00169
H          2.64979        1.34796       -1.73972
H          4.45775        1.98674        0.33884
H          6.01994        0.11227       -1.60056
H          6.70629        1.11165       -0.24490
H          5.80403        3.19213       -1.34120
H          5.10917        2.17848       -2.68374
