14
-1408.99
C          2.61320        0.12097       -1.50144
O          3.75603        0.80667       -1.00435
C          3.56436        1.76866       -0.03945
C          2.37973        2.19133        0.43051
C          4.79874        2.33657        0.48203
C          6.03468        2.00277        0.08797
H          2.95465       -0.60909       -2.24010
H          1.92693        0.81063       -2.00315
H          2.10630       -0.42278       -0.69896
H          1.43368        1.80354        0.07431
H          2.31691        2.95668        1.19741
H          4.69982        3.09273        1.25791
H          6.21137        1.25740       -0.68159
H          6.90435        2.47435        0.53373
