15

C	0.315874	0.721878	-0.237445
C	-0.906964	-0.126878	-0.033163
C	0.455255	-0.745231	0.024413
N	0.942459	-1.13888	1.30712
C	1.051363	-2.550656	1.579411
C	2.26267	-1.714238	1.376376
H	0.537385	1.094155	-1.241023
H	0.608983	1.385959	0.579218
H	-1.544256	-0.350317	-0.893115
H	-1.432105	-0.031145	0.920499
H	0.753337	-1.380716	-0.827761
H	0.789499	-3.252012	0.776029
H	0.757465	-2.877116	2.582995
H	2.883079	-1.409567	2.22675
H	2.814438	-1.854358	0.436856
