16
-1596.76
N          0.99968        0.04672       -0.00887
C          2.45215       -0.00660       -0.01557
C          2.99472       -1.28529        0.63577
C          3.29172       -0.91659        2.09007
O          4.48272       -1.53973        2.53497
C          3.47431        0.56230        2.02402
C          3.00307        1.06013        0.87366
H          0.62783       -0.72751       -0.55618
H          0.69107        0.89810       -0.47473
H          2.82997        0.09029       -1.03861
H          3.91058       -1.60701        0.12030
H          2.29963       -2.13078        0.56912
H          2.46962       -1.18352        2.76126
H          5.22348       -1.11816        2.06802
H          3.87096        1.15219        2.83794
H          2.98181        2.11263        0.62832
