16
-1618.72
N          1.96684       -0.76170       -1.08016
C          2.90685       -0.43166       -0.02100
C          2.87341        1.04043        0.22665
C          3.93735        1.85399        0.11497
C          3.89859        3.33227        0.37064
C          4.82506        3.67231        1.45908
C          5.58077        3.95571        2.34903
H          1.99081       -1.76686       -1.24125
H          2.28772       -0.33132       -1.94643
H          3.91008       -0.77426       -0.29688
H          2.61895       -0.95549        0.89645
H          1.91133        1.44844        0.53105
H          4.89838        1.44371       -0.18865
H          2.88602        3.66455        0.62629
H          4.18833        3.85846       -0.54571
H          6.24963        4.20444        3.14027
