15

C	0.972	-0.009598	0.084527
C	2.485578	-0.012612	0.038346
C	3.150733	1.163642	0.771323
N	4.383285	0.561653	1.223119
C	4.276691	-0.79365	1.320111
S	5.375468	-1.823503	2.000152
N	3.086561	-1.130172	0.745002
H	0.559157	-0.89303	-0.425924
H	0.569886	0.881552	-0.421395
H	0.616022	-0.016577	1.125677
H	2.820085	-0.010251	-1.019436
H	2.518495	1.496238	1.618653
H	3.321251	2.025411	0.108791
H	5.064788	1.037256	1.798633
H	2.941609	-2.093419	0.47198
