17

C	1.211883	-0.341863	0.095017
N	2.616996	-0.105476	-0.131428
C	3.006435	1.284391	-0.094765
C	4.521309	1.431733	-0.114643
C	5.19706	0.739135	1.073185
C	4.876927	1.371517	2.348372
N	4.601951	1.892445	3.345096
H	0.993891	-1.417631	0.018049
H	0.534839	0.194998	-0.60396
H	0.940635	-0.02688	1.115754
H	2.904075	-0.51966	-1.01596
H	2.61446	1.724805	0.839544
H	2.568416	1.890016	-0.919556
H	4.790744	2.499295	-0.137703
H	4.925347	0.98805	-1.04106
H	6.292505	0.73046	0.957625
H	4.849878	-0.305665	1.116554
