15
-1522.57
C          1.16784        0.02946       -0.35740
N          2.61612       -0.12227       -0.43272
C          3.29352        1.11616       -0.03070
C          4.80353        1.01760        0.04330
C          5.51270       -0.11430       -0.12639
C          5.50462        2.23406        0.31814
N          6.06378        3.22670        0.53716
H          0.68806       -0.90648       -0.65995
H          0.81216        0.82162       -1.02428
H          0.84445        0.24898        0.66525
H          2.87091       -0.33622       -1.39709
H          2.93187        1.42055        0.96031
H          3.02780        1.91154       -0.73946
H          5.02930       -1.06710       -0.31923
H          6.59754       -0.12500       -0.05920
