20

C	0.804947	-0.65597	0.212863
C	2.278313	-0.511307	-0.152188
C	2.790472	-1.765575	-0.854514
C	2.505082	0.752661	-0.98455
C	3.949429	1.058011	-1.280974
C	4.62118	0.625733	-2.528672
N	4.21187	2.009256	-2.349002
H	0.431635	0.229479	0.751373
H	0.633428	-1.537055	0.851409
H	0.188232	-0.776564	-0.69347
H	2.849031	-0.395993	0.789286
H	2.264068	-1.919239	-1.811621
H	2.62368	-2.662195	-0.236871
H	3.866474	-1.703295	-1.074357
H	2.069891	1.619098	-0.455427
H	1.959893	0.678103	-1.941767
H	4.591923	1.112411	-0.38937
H	4.052818	0.062754	-3.278125
H	5.685876	0.366621	-2.484798
H	5.011657	2.599094	-2.126704
