18

C	0.891328	-0.241044	-0.088672
C	2.384761	-0.203206	-0.214457
O	2.917179	-0.243015	-1.525386
C	3.11009	0.940373	-0.776256
C	4.519156	1.280486	-0.381332
C	4.58491	2.271051	0.771639
N	5.95684	2.643926	1.05178
H	0.575629	0.069043	0.919714
H	0.513162	-1.260462	-0.262881
H	0.422201	0.426094	-0.826039
H	2.934073	-0.829821	0.506054
H	2.503119	1.793148	-1.120937
H	5.058323	1.705329	-1.244391
H	5.042305	0.345734	-0.114731
H	4.034879	1.841093	1.638706
H	4.0309	3.184411	0.490301
H	6.477855	1.836091	1.38949
H	5.99551	3.337768	1.795047
