15
-1505.19
N          0.76493        2.89941        0.11612
N          1.66872        1.89294        0.11532
C          2.89557        2.30803        0.08045
C          4.02498        1.35737        0.08467
C          5.28183        1.81973        0.08754
C          6.43059        0.94480        0.09913
C          7.68963        1.39691        0.12305
H         -0.17597        2.50471        0.03850
H          0.76992        3.39518        1.01106
H          3.15473        3.38281        0.04760
H          3.77346        0.30347        0.08970
H          5.47461        2.89077        0.08434
H          6.25533       -0.12963        0.08808
H          7.92631        2.45614        0.13654
H          8.52360        0.70159        0.13207
