14

C	0.371411	1.41547	0.528277
C	0.897884	0.419115	-0.458748
C	0.978519	-1.041523	-0.038972
C	-0.451975	-1.403256	0.27097
C	-1.295282	-0.402435	-0.016238
C	-0.567652	0.808044	-0.485179
H	0.66828	2.458379	0.385025
H	0.250788	1.11196	1.573848
H	1.580392	0.782024	-1.231941
H	1.645856	-1.193525	0.828366
H	1.380322	-1.673966	-0.85121
H	-0.742944	-2.36774	0.694135
H	-2.380301	-0.437221	0.111316
H	-0.993838	1.444892	-1.266379
