17

C	0.909965	-0.433082	0.154989
C	2.35296	-0.098815	-0.022573
C	2.929392	1.11275	-0.076209
C	2.20397	2.432687	0.025585
O	2.335414	3.227448	-1.123948
C	4.419268	1.230435	-0.255536
O	4.772403	1.947798	-1.429907
H	0.752551	-0.996922	1.090354
H	0.562232	-1.086764	-0.662439
H	0.259799	0.451419	0.180224
H	3.020472	-0.968456	-0.104279
H	2.588331	2.959795	0.927304
H	1.128221	2.279609	0.195643
H	3.272541	3.202618	-1.369282
H	4.8927	0.23115	-0.239329
H	4.853398	1.810654	0.576328
H	4.417445	1.457584	-2.181666
