13
-1317.7
C          1.02349       -0.02363        0.22563
C          2.51115       -0.10397        0.01348
C          3.07580       -1.22431       -0.46784
C          3.34508        1.04412        0.33332
C          2.92185        2.21905        0.81735
H          0.58741        0.77639       -0.38224
H          0.79136        0.16538        1.27925
H          0.51954       -0.95524       -0.05511
H          2.47866       -2.09673       -0.71537
H          4.14602       -1.30928       -0.63046
H          4.41534        0.93093        0.16032
H          1.87864        2.43036        1.02312
H          3.63286        3.01352        1.02224
