12
-1224.46
N          5.39693       -1.72928       -0.56093
C          4.56994       -0.95810       -0.29559
C          3.52898        0.01672        0.04542
C          4.25272        1.32720        0.13157
C          4.42165        2.20427       -1.08550
N          3.48380        2.56496       -0.02606
H          3.07047       -0.22458        1.00966
H          2.74215        0.02840       -0.71638
H          5.01604        1.34743        0.90301
H          3.97881        1.89637       -2.02512
H          5.31857        2.80598       -1.17043
H          3.86726        3.31584        0.55370
