15
-1513.99
C          1.29445        0.29585        0.10692
C          2.77667        0.01386       -0.15290
C          2.91484       -0.77728       -1.40128
N          3.02266       -1.42668       -2.35795
N          3.48988        1.30592       -0.24778
C          3.98403        1.81217        1.03082
C          4.92441        1.21081        0.01933
H          1.15306        0.84348        1.04532
H          0.72776       -0.63969        0.18110
H          0.84649        0.88603       -0.70171
H          3.15382       -0.59896        0.67775
H          3.77240        1.25701        1.93648
H          3.98195        2.89027        1.14245
H          5.55375        1.88198       -0.55372
H          5.35981        0.24067        0.22723
