18

C	0.977422	-0.103255	0.309309
C	2.390192	0.156575	-0.151607
C	3.214683	1.194722	0.626062
C	4.127878	0.002671	0.952608
C	5.535362	0.040677	0.394936
N	6.356413	0.954859	1.159766
O	3.289206	-0.895329	0.223486
H	0.588149	-1.020976	-0.156952
H	0.316359	0.733424	0.031694
H	0.944277	-0.233862	1.40203
H	2.40485	0.308357	-1.248129
H	2.699183	1.649377	1.483184
H	3.674551	1.987946	0.017043
H	4.179987	-0.254391	2.026532
H	5.465236	0.259423	-0.693402
H	5.950149	-0.978261	0.478729
H	6.055515	1.915965	1.00589
H	7.325759	0.909968	0.856203
