14

C	0.843693	-0.027942	-0.005891
C	2.334219	-0.032891	-0.002489
C	3.200185	1.039007	-0.006645
C	2.793661	2.480158	-0.015041
N	4.531801	0.713657	-0.003196
C	4.705856	-0.569072	0.003298
S	3.250094	-1.499884	0.006301
H	0.471193	1.005403	0.000514
H	0.428114	-0.539339	0.877108
H	0.432392	-0.526373	-0.898396
H	3.695132	3.105257	-0.002933
H	2.182368	2.73954	0.86385
H	2.209281	2.736592	-0.913033
H	5.683591	-1.057071	0.007261
