13

C	1.487886	-0.371971	-1.112391
C	2.120309	0.04747	-0.0169
C	3.194982	1.09824	0.019303
C	2.772124	2.442684	0.53687
N	3.078394	3.394244	-0.261801
N	3.722862	2.847035	-1.399464
C	3.77901	1.574493	-1.270696
H	0.700336	-1.127195	-1.048823
H	1.724439	0.019492	-2.105879
H	1.842239	-0.369954	0.957489
H	4.028476	0.739939	0.660249
H	2.26323	2.631674	1.486068
H	4.244963	0.94405	-2.033525
