13
-1327.02
C          0.97158        0.02665       -0.04871
C          2.45217        0.04458       -0.03074
N          3.22488        1.11132        0.06531
C          4.51395        0.63353        0.04032
C          4.52805       -0.73942       -0.04984
N          3.21689       -1.08913       -0.10503
O          2.75767       -2.39005       -0.24470
H          0.57351        1.04628       -0.05518
H          0.58497       -0.48221        0.83967
H          0.59961       -0.49106       -0.93779
H          5.36131        1.30659        0.08861
H          5.32542       -1.46297       -0.09394
H          2.09034       -2.41093        0.46012
