15
-1432.23
C          0.71220        1.19647       -0.23428
C         -0.74248        1.17757        0.26095
O         -1.42938        0.00198       -0.18599
C         -0.74363       -1.18070        0.24624
C          0.71103       -1.19578       -0.24862
N          1.46203       -0.00250        0.18737
H          0.72934        1.25229       -1.32916
H          1.22172        2.08884        0.14485
H         -1.28003        2.04572       -0.13356
H         -0.78819        1.22511        1.35485
H         -0.78957       -1.24112        1.34046
H         -1.28253       -2.04319       -0.15790
H          1.21858       -2.09239        0.11894
H          0.72747       -1.23737       -1.34423
H          1.51134       -0.00870        1.20657
