13

N	1.241705	-0.198666	0.426725
C	1.875465	0.553626	-0.510496
O	1.630237	0.462061	-1.698512
C	2.89868	1.508932	0.019616
C	4.101402	1.75803	-0.856411
C	3.056118	2.806509	-0.733667
H	1.45747	-0.134553	1.409961
H	0.546963	-0.864255	0.114857
H	3.050677	1.531976	1.103183
H	4.130003	1.18949	-1.789403
H	5.063974	1.905574	-0.360019
H	3.271074	3.7049	-0.149562
H	2.382601	2.940464	-1.584162
