17

C	2.370203	3.422087	-0.407784
C	2.772247	2.174471	-0.655865
C	3.264038	1.206457	0.370897
C	4.72604	0.848165	0.169141
C	5.78302	1.890388	0.564088
C	6.277099	0.794896	1.514258
O	5.200661	-0.070033	1.156998
H	2.036507	4.086464	-1.209292
H	2.349763	3.822347	0.611591
H	2.774976	1.817765	-1.694723
H	2.686369	0.266461	0.32395
H	3.137358	1.61302	1.387615
H	4.870897	0.440718	-0.85161
H	5.366325	2.782432	1.053527
H	6.477101	2.205651	-0.22605
H	7.261469	0.363498	1.254821
H	6.278657	1.040015	2.590989
