16
-1610.23
C          1.03409       -0.01818       -0.01936
C          2.54974       -0.01735        0.09620
C          3.07796        1.19622        0.85809
C          4.37920        0.64653        1.35917
O          5.30057        1.33129        1.78472
C          4.39394       -0.86353        1.26550
N          3.01745       -1.18477        0.85752
H          0.68373       -0.90109       -0.56562
H          0.68896        0.87030       -0.55946
H          0.55314       -0.01952        0.96571
H          2.99050       -0.04327       -0.90927
H          2.45319        1.46924        1.71363
H          3.24243        2.05131        0.19850
H          5.11364       -1.16930        0.50074
H          4.62559       -1.31066        2.23423
H          2.99789       -2.02928        0.28706
