14
-1392.87
C          1.07575       -0.05940       -0.15607
N          2.35309       -0.12041        0.00883
O          2.86719        1.18480        0.01601
C          4.28295        1.11231        0.20516
C          4.84432        2.52802        0.20563
C          6.30244        2.53617        0.38928
C          7.49388        2.54562        0.53840
H          0.48170       -0.98546       -0.19044
H          0.52880        0.89204       -0.26745
H          4.72688        0.52178       -0.60580
H          4.49525        0.61317        1.15868
H          4.36134        3.11292        0.99765
H          4.58038        3.02669       -0.73476
H          8.55160        2.55414        0.67031
