14

C	-0.854605	6.2e-05	-1.293875
C	-0.623085	0.962335	-0.120393
O	-1.313417	-3e-06	0.724065
C	-0.623243	-0.962374	-0.120492
C	0.846545	-0.742041	0.304294
N	1.749345	-0.000199	-0.548578
C	0.846671	0.741709	0.304368
H	-1.910349	0.000161	-1.587993
H	-0.214012	5.6e-05	-2.189462
H	-1.0346	1.979652	-0.076146
H	-1.034951	-1.979618	-0.076358
H	1.284107	-1.362509	1.091711
H	1.486402	-0.000128	-1.53169
H	1.284332	1.362026	1.091849
