15
-1456.64
C          3.20200       -1.11899       -0.79432
O          2.49532       -0.06436       -0.15079
C          3.17735        1.09788        0.07971
C          4.44242        1.41688       -0.22990
N          5.06962        2.60722        0.05028
C          6.33924        3.01887       -0.23830
N          7.26343        2.42896       -0.90775
H          2.52695       -1.97582       -0.87672
H          4.06906       -1.42843       -0.20177
H          3.50391       -0.82628       -1.80497
H          2.51329        1.78890        0.58796
H          5.08192        0.70672       -0.74166
H          4.49674        3.26895        0.56634
H          6.55419        4.01417        0.18844
H          6.92529        1.52951       -1.25129
