16
-1545.47
C          2.35853       -0.50023       -1.46247
C          2.46199        0.02000       -0.03786
C          3.23325        1.33020       -0.00275
C          2.51615        2.59082       -0.50430
O          2.82540        3.29790        0.72148
C          3.25104        2.06275        1.34560
H          1.81972       -1.45211       -1.48159
H          3.35162       -0.65967       -1.89428
H          1.82419        0.20796       -2.10315
H          2.97514       -0.72658        0.58008
H          1.45524        0.14657        0.37819
H          4.24255        1.22557       -0.42196
H          1.43415        2.51148       -0.64838
H          2.97175        3.06929       -1.37557
H          4.23659        2.16001        1.80883
H          2.52305        1.72908        2.09143
