18
-1688.85
C          2.31555       -1.24793        0.04198
C          1.56412        0.01010        0.45986
C          2.51233        1.16093        0.82617
C          1.70597        2.42706        1.10999
O          3.25769        0.76072        1.98094
C          4.36711        1.60059        2.26915
H          1.60673       -2.03985       -0.21954
H          2.95344       -1.62036        0.84897
H          2.94430       -1.05381       -0.83304
H          0.93201       -0.23893        1.32085
H          0.90361        0.31411       -0.36016
H          3.19842        1.33859       -0.01155
H          1.09480        2.30863        2.01040
H          1.05181        2.67668        0.26830
H          2.36526        3.28372        1.28208
H          4.95833        1.12435        3.05608
H          4.03136        2.57243        2.64000
H          5.00202        1.72809        1.38771
