12

O	1.42385	-0.028928	1.181714
C	2.352641	-0.019553	0.434438
C	3.210776	1.090602	-0.166402
C	4.201768	-0.01303	-0.639197
C	3.180899	-1.115372	-0.23118
C	4.616137	0.02232	-2.03103
N	4.929481	0.051943	-3.145264
H	3.59448	1.848497	0.532318
H	2.69616	1.601743	-0.995231
H	5.102024	-0.043542	-0.006979
H	2.653352	-1.562406	-1.088324
H	3.543433	-1.923114	0.421346
