14
-1459.03
O          2.65525       -0.96135       -1.22771
C          2.38586       -0.21496       -0.04740
C          3.18597        1.08901       -0.06193
C          4.67804        0.87547        0.07367
C          5.53635        1.21612       -0.90347
C          5.17993        0.31846        1.29110
N          5.56547       -0.13283        2.28650
H          2.17045       -1.80192       -1.15218
H          2.62321       -0.83153        0.82552
H          1.31460        0.01044       -0.02938
H          2.84635        1.72909        0.76187
H          2.96844        1.62762       -0.99318
H          5.18737        1.64050       -1.84027
H          6.60850        1.06761       -0.80156
