16
-1563.08
C          1.09664        0.51953       -1.00781
O          0.63603        1.39928        0.02799
C          0.58282       -0.00829        0.30028
C          1.44741       -0.44087        1.44253
C          0.87146       -0.48387        2.87500
C          1.60650       -1.82722        2.98202
N          1.53500       -1.92534        1.50563
H          0.47194        0.40981       -1.88459
H          2.16098        0.48610       -1.20006
H         -0.39202       -0.47930        0.32831
H          2.43991        0.03208        1.41251
H         -0.22032       -0.56420        2.92933
H          1.21005        0.30270        3.55305
H          2.62979       -1.75112        3.36938
H          1.07684       -2.61687        3.52133
H          2.36626       -2.31882        1.06728
