13
-1335.03
O          1.06718        0.00319        0.07568
C          2.28558        0.03518        0.01209
C          3.01249        1.33996        0.04590
N          4.30040        1.41968       -0.08433
N          4.58721        2.73785        0.05903
C          3.40455        3.57763       -0.11972
C          2.28306        2.62313        0.24956
H          2.93135       -0.85223       -0.07455
H          5.38485        3.03795       -0.50459
H          3.31577        3.88729       -1.16713
H          3.42568        4.46764        0.51484
H          1.41917        2.71208       -0.41241
H          1.98534        2.70905        1.29857
