16

C	0.595184	1.220043	0.651492
C	-0.836331	0.773561	0.41111
C	-0.849343	0.01069	-0.864277
C	0.574206	-0.002651	-1.393384
C	1.258703	0.010115	-0.020149
C	0.492088	-1.126003	0.667573
N	-0.890065	-0.693365	0.423276
H	0.830254	2.174186	0.15385
H	0.844464	1.309962	1.7206
H	-1.699733	1.315622	0.803358
H	-1.723611	-0.071055	-1.514273
H	0.806348	-0.90412	-1.982669
H	0.807098	0.88634	-2.000877
H	2.354963	-0.03392	-0.005407
H	0.683345	-1.195832	1.749761
H	0.66738	-2.114703	0.215476
