12
-1118.53
N          1.08802        0.17382        0.18560
C          2.47922       -0.05880       -0.18575
C          3.22330        1.23064       -0.10005
C          3.82956        1.69648        1.19630
O          4.62644        1.09529        0.16472
H          0.58751       -0.71395        0.15626
H          0.64513        0.76582       -0.51602
H          2.53176       -0.45440       -1.20513
H          2.90967       -0.80937        0.48607
H          2.91847        1.96400       -0.83394
H          3.64201        1.11881        2.09291
H          3.93672        2.76198        1.35710
