19
-1899.34
C          0.79209        0.33117        0.19910
C          2.27197        0.09877        0.15202
C          2.80181       -1.13407        0.17402
C          3.20808        1.25578        0.03517
C          2.63666        2.69777        0.12027
C          3.92395        3.08058        0.88114
C          4.00383        1.60587        1.32487
H          0.46953        0.93471       -0.65527
H          0.51485        0.84854        1.12299
H          0.23033       -0.60867        0.16748
H          2.17620       -2.01953        0.24248
H          3.87487       -1.29694        0.12320
H          3.86459        1.14172       -0.84113
H          1.73462        2.82818        0.72857
H          2.49129        3.20596       -0.83715
H          4.74786        3.39240        0.22913
H          3.80401        3.81385        1.68224
H          5.01303        1.19007        1.38944
H          3.47522        1.40301        2.26449
