11
-1123.32
C          1.78757       -0.73913       -0.78646
C          2.65767       -0.21471        0.08634
C          3.18314        1.18755        0.01932
C          4.69700        1.23128       -0.05021
O          5.45172        0.33253        0.31078
H          1.45549       -1.76837       -0.68390
H          1.39002       -0.16706       -1.61881
H          3.02880       -0.83770        0.89993
H          2.87098        1.75278        0.90371
H          2.80064        1.70603       -0.86628
H          5.11281        2.19328       -0.39732
