15

C	0.907811	-0.062082	-0.22571
C	2.22684	0.027846	0.008825
C	2.93695	1.324022	0.305894
C	4.360609	1.244239	-0.224325
N	4.990785	0.058593	0.313045
N	4.372501	-1.123726	0.207014
C	3.092527	-1.149847	0.045051
H	0.27052	0.826054	-0.247846
H	0.430275	-1.030609	-0.398893
H	2.402086	2.182807	-0.12566
H	2.973053	1.469212	1.399786
H	4.95209	2.123773	0.071139
H	4.332686	1.208354	-1.334368
H	5.988227	-0.031486	0.16357
H	2.640821	-2.14526	-0.027403
