11

N	0.910031	0.061741	-0.465767
C	2.111501	0.138393	-0.047751
N	2.836612	-1.001407	0.28042
C	2.365302	-2.295656	0.191486
O	3.03472	-3.251118	0.488407
C	2.847825	1.369746	0.132302
C	3.438266	2.418485	0.272827
H	0.538061	0.990684	-0.657434
H	3.788925	-0.896033	0.613512
H	1.320179	-2.339748	-0.178609
H	3.955569	3.353505	0.395716
