14
-1419.69
O          1.45542       -0.30278       -0.12138
N          2.79498        0.10419       -0.08272
C          2.92301        1.39944       -0.02308
C          1.78195        2.37447        0.04663
C          1.85763        3.69701       -0.15114
C          4.29215        1.99448        0.04616
C          5.34143        1.37686       -0.51110
H          1.53833       -1.27347       -0.16345
H          0.81131        1.93132        0.24704
H          2.77804        4.21356       -0.39575
H          0.95839        4.30397       -0.09275
H          4.41927        2.93026        0.57569
H          5.23385        0.43211       -1.03666
H          6.33565        1.80515       -0.44803
