11
-1208.95
O          0.85302        0.16470       -0.09154
C          2.06991        0.05852       -0.05251
C          2.91922        1.22269       -0.02942
C          3.62899        2.19019       -0.00971
C          4.47405        3.34392        0.01691
C          4.64577        4.16978       -1.22978
O          3.75963        4.57202       -0.17877
H          2.59087       -0.91158       -0.03434
H          5.27679        3.35316        0.74468
H          4.19986        3.82915       -2.15595
H          5.56344        4.73118       -1.35048
