15

N	0.999574	0.046589	0.044821
C	2.436168	0.108122	0.017721
C	3.076461	1.211753	0.859259
C	4.433684	0.621815	1.2592
N	4.15217	-0.795922	1.29489
C	3.028078	-1.162776	0.629642
O	2.569748	-2.277959	0.515595
H	0.724989	-0.92884	-0.081608
H	0.589853	0.576664	-0.718536
H	2.867411	0.144043	-1.009664
H	2.443295	1.353025	1.748886
H	3.168877	2.177485	0.342364
H	5.218227	0.862184	0.516389
H	4.780657	0.989895	2.237296
H	4.771507	-1.489836	1.693005
