18

C	0.958049	0.019314	-0.032559
C	2.487475	-0.00444	-0.027319
C	3.07736	-1.276338	0.613364
C	3.408825	-0.910061	2.080499
N	4.564645	-1.541481	2.68531
C	3.537651	0.590405	2.004418
C	3.056028	1.078099	0.858373
H	0.550914	-0.77733	-0.674816
H	0.572928	0.981096	-0.406502
H	0.558701	-0.124181	0.984335
H	2.833119	0.112688	-1.069939
H	4.028094	-1.531212	0.115589
H	2.415137	-2.152391	0.523019
H	2.54672	-1.147802	2.735192
H	5.387206	-1.393241	2.101216
H	4.429665	-2.54857	2.748547
H	3.948528	1.172037	2.833412
H	3.001714	2.13961	0.599272
