19
-1798.5
C          2.29564       -1.01478        1.32092
C          2.46200       -0.27727       -0.00059
C          3.04581        1.12339        0.17336
N          4.41290        1.01646        0.68987
C          4.97768        2.15776        0.85244
N          6.24133        2.28731        1.33310
C          6.72233        3.49252        1.95628
H          1.82723       -1.98905        1.15147
H          1.66181       -0.44805        2.00920
H          3.26169       -1.18724        1.80448
H          1.48075       -0.19445       -0.48402
H          3.10173       -0.86972       -0.66599
H          2.41712        1.70482        0.85877
H          3.05001        1.62638       -0.80131
H          4.48688        3.12121        0.62123
H          6.61999        1.41391        1.68716
H          6.58422        4.35457        1.29698
H          7.78988        3.39824        2.17465
H          6.19273        3.67669        2.89602
