14

C	0.98077	-0.170467	-0.050979
C	2.45022	0.04669	-0.002975
C	3.065802	1.234752	0.01521
C	4.537987	1.308818	0.063203
O	5.301862	0.344951	0.088838
N	5.063415	2.551139	0.078827
O	6.422023	2.658776	0.122379
H	0.703829	-0.761095	-0.940738
H	0.418352	0.773845	-0.071732
H	0.645438	-0.75685	0.821335
H	3.100755	-0.836733	0.019924
H	2.493937	2.16967	-0.005354
H	4.570819	3.432112	0.062098
H	6.66641	1.706102	0.130503
