11
-1199.56
C          0.99073       -0.02079        0.02730
C          2.52000        0.00000        0.00000
C          3.00924       -0.78819       -1.15126
C          3.41008       -1.42872       -2.08694
C          3.00202        1.36117        0.00000
N          3.38623        2.44616        0.00000
H          0.60482        0.51519        0.90217
H          0.61157       -1.04843        0.06931
H          0.56450        0.45267       -0.86581
H          2.87232       -0.49346        0.91496
H          3.76905       -1.98928       -2.91911
