18
-1728.07
C          1.54681       -0.76681        0.51377
C          3.02754       -0.73444        0.16574
N          3.50045        0.65141        0.17143
C          4.92574        0.75551       -0.19209
C          5.24547        2.20852       -0.52543
C          5.83455        0.31857        0.95498
O          5.45955        0.09352        2.10319
H          1.18692       -1.80042        0.53374
H          0.95530       -0.21826       -0.22694
H          1.35888       -0.32584        1.49847
H          3.16677       -1.17935       -0.82606
H          3.57635       -1.34462        0.89111
H          3.38874        1.02465        1.11915
H          5.14777        0.13025       -1.06432
H          5.05995        2.86816        0.33063
H          4.64097        2.56280       -1.36745
H          6.30077        2.32122       -0.79831
H          6.90319        0.23130        0.69092
