19

C	0.828482	-0.839508	0.976191
C	2.231396	-0.595343	0.444361
C	2.524994	0.877429	0.213688
N	3.866121	1.069288	-0.280471
N	4.337749	2.322275	-0.251591
C	5.287474	2.667768	-1.029796
C	5.883871	4.032115	-0.971111
H	0.636199	-1.91174	1.129554
H	0.062561	-0.460355	0.280642
H	0.674669	-0.333298	1.942424
H	2.365503	-1.146244	-0.504599
H	2.985943	-0.998919	1.140087
H	2.446457	1.436047	1.159757
H	1.759894	1.308588	-0.46797
H	4.093065	0.523302	-1.115911
H	5.705897	1.950757	-1.766031
H	5.360454	4.634357	-0.215718
H	5.814051	4.545357	-1.945563
H	6.955207	3.992376	-0.709052
