9
-972.49
C          1.00000        0.00000        0.00000
C          2.44400        0.00000        0.00000
C          3.63416        0.00000        0.00000
C          5.07620        0.01159       -0.00000
O          5.69740        1.06446       -0.00000
H          0.60593        1.02086        0.01168
H          0.60591       -0.52054        0.87824
H          0.60591       -0.50030       -0.88993
H          5.56159       -0.97685       -0.00000
