16
-1558.06
C          0.95577        0.09821       -0.21211
C          2.42432       -0.01579        0.01524
C          3.27722       -0.80870       -0.93534
C          3.39397        0.69820       -0.90067
C          4.60247        1.32905       -0.33367
N          5.70488        1.22438       -0.99659
O          6.71774        1.88880       -0.29552
H          0.56854        0.99697        0.27786
H          0.44113       -0.76980        0.21165
H          0.70606        0.15606       -1.27657
H          2.66135       -0.08117        1.07148
H          2.81621       -1.25528       -1.80904
H          4.09315       -1.39420       -0.52482
H          2.98060        1.23420       -1.74956
H          4.51518        1.86912        0.62446
H          7.49486        1.74393       -0.86711
