13
-1449.2
C          2.78924       -0.71167        2.76813
C          3.14889       -0.40953        1.66200
C          3.58750       -0.04836        0.30771
C          4.14940        1.34150        0.30789
C          5.42090        1.63646        0.00000
C          5.89023        2.96181        0.00000
C          6.28751        4.08371        0.00000
H          2.47306       -0.97653        3.75102
H          2.73936       -0.08815       -0.38491
H          4.32644       -0.77475       -0.04964
H          3.45705        2.14170        0.56403
H          6.12454        0.85077       -0.25959
H          6.64161        5.08818        0.00175
