14

C	0.871621	0.058857	0.227063
C	2.340432	0.047286	-0.123164
C	3.253935	1.013974	0.659407
N	3.74143	0.025181	1.63139
S	3.262905	-1.306966	0.687328
O	2.446696	-2.247616	1.431132
O	4.352888	-1.793414	-0.147981
H	0.364207	-0.82257	-0.190011
H	0.389295	0.958784	-0.184936
H	0.727841	0.047812	1.317063
H	2.528599	0.015262	-1.205799
H	2.70032	1.831442	1.146925
H	4.044579	1.441937	0.02135
H	4.717531	0.052044	1.921933
