15

C	0.692707	0.100212	-0.049714
C	2.165348	-0.010631	-0.221943
C	3.079781	0.815683	0.320512
C	4.502617	0.666303	0.124738
C	5.451185	1.471139	0.651054
C	6.872974	1.239778	0.397095
O	7.77033	1.917846	0.837791
H	0.278196	-0.820902	0.394546
H	0.190447	0.221621	-1.024349
H	0.414517	0.94914	0.591364
H	2.525491	-0.840059	-0.845479
H	2.746205	1.652039	0.946927
H	4.82846	-0.173868	-0.504451
H	5.196108	2.32566	1.286768
H	7.086313	0.354198	-0.26127
