18
-1665.99
N          0.82085       -0.13979       -0.10296
C          2.28690       -0.17238       -0.31033
C          2.64845       -1.51647       -0.97235
O          1.91862       -1.66881       -2.18895
C          2.66912        1.04892       -1.16790
C          4.16343        1.15866       -1.44862
O          4.89361        1.21468       -0.23028
H          0.57076        0.72869        0.37136
H          0.56085       -0.88857        0.54142
H          2.77913       -0.10982        0.66691
H          2.38014       -2.35188       -0.31599
H          3.71622       -1.59923       -1.19014
H          1.03699       -1.29041       -1.99121
H          2.35404        1.95663       -0.63608
H          2.12967        1.03564       -2.12297
H          4.37912        2.06570       -2.02328
H          4.52933        0.30950       -2.03196
H          4.73328        2.09061        0.16236
