17
-1624.54
C          3.69017       -1.69773        1.21832
C          3.25377       -0.88846        0.02855
C          2.63660       -1.45922       -1.01927
C          3.50330        0.60453        0.08893
C          4.99439        0.96562        0.05331
N          5.18613        2.41598        0.06482
H          4.78033       -1.69715        1.30597
H          3.36464       -2.74031        1.14590
H          3.26485       -1.28236        2.13720
H          2.44326       -2.52793       -1.05265
H          2.30300       -0.87505       -1.87277
H          3.04345        1.00241        1.00326
H          2.99381        1.10162       -0.74753
H          5.46411        0.54856       -0.84435
H          5.50952        0.54461        0.92247
H          4.76186        2.82117       -0.76916
H          6.18300        2.62134        0.00399
