15
-1542.17
C          3.10635       -1.25154       -0.32583
C          2.40915        0.01103        0.15375
C          3.39200        1.08777        0.48190
O          3.83928        1.85192       -0.64219
C          3.02636        2.54199        0.32187
C          3.74761        3.53274        1.06052
C          4.35005        4.36505        1.67970
H          2.37220       -2.03136       -0.55035
H          3.79177       -1.63544        0.43700
H          3.68922       -1.05726       -1.23220
H          1.82194       -0.21767        1.05012
H          1.70352        0.34689       -0.61533
H          4.11661        0.80443        1.23411
H          2.01406        2.79044        0.02609
H          4.89108        5.10454        2.22431
