14

C	2.841802	-1.08222	0.20391
C	2.232632	0.109863	0.201608
C	2.876694	1.399995	-0.06978
C	2.148639	2.516519	-0.26883
N	4.276326	1.398955	-0.123584
C	5.063019	2.156331	-0.948149
O	6.267729	2.165133	-0.907409
H	2.287241	-1.995995	0.427376
H	3.903075	-1.196558	-0.035653
H	1.162098	0.16784	0.421532
H	1.059668	2.456645	-0.302547
H	2.609819	3.494787	-0.413206
H	4.782372	0.773495	0.496675
H	4.464625	2.74859	-1.679243
