13
-1305.65
C          1.73289       -0.71797       -0.22953
O          3.13776       -0.51046       -0.13132
N          3.38658        0.87033       -0.17618
C          4.65809        1.10623       -0.09609
C          5.76316        0.10672        0.03184
C          4.97535        2.51421       -0.12805
N          5.27186        3.63820       -0.15018
H          1.53927       -1.79329       -0.19669
H          1.35670       -0.31992       -1.17723
H          1.22001       -0.24055        0.61127
H          5.71037       -0.60734       -0.79375
H          5.65690       -0.43154        0.97728
H          6.73966        0.59783        0.01144
