20

N	1.281468	-0.231716	0.866542
C	2.530328	0.4727	1.081146
C	2.926015	1.267361	-0.152835
C	4.268265	1.971082	-0.02156
C	4.645573	2.782736	-1.250953
C	5.991276	3.46527	-1.132187
O	6.231869	4.186562	-2.312025
H	0.525361	0.434397	0.715128
H	1.023766	-0.768226	1.691958
H	3.316428	-0.274536	1.288844
H	2.526842	1.15892	1.958217
H	2.141422	2.01698	-0.36715
H	2.93559	0.584004	-1.019108
H	5.052939	1.218573	0.178993
H	4.252142	2.631142	0.865642
H	3.88301	3.555486	-1.44826
H	4.664241	2.135969	-2.144961
H	6.773402	2.697684	-0.952604
H	5.987772	4.126279	-0.239416
H	7.099091	4.596473	-2.248602
