16
-1567.57
C          1.04721       -0.03990        0.04420
C          2.56088        0.04422        0.03034
C          3.11387        1.17490        0.87953
C          4.49869        0.66475        1.19086
C          4.25402       -0.81764        1.37981
O          3.12412       -1.16523        0.56462
H          0.70758       -0.89043       -0.55660
H          0.59616        0.87366       -0.35453
H          0.67082       -0.20484        1.05977
H          2.91612        0.13736       -1.00281
H          2.54420        1.28375        1.81068
H          3.11178        2.13757        0.36073
H          5.15736        0.82841        0.32969
H          4.95624        1.13634        2.06443
H          5.11667       -1.42439        1.09011
H          3.99797       -1.04829        2.41914
