17

C	1.417585	-0.221621	0.615982
C	2.180642	0.436704	-0.257672
C	3.033292	1.624712	0.055114
C	4.510991	1.385932	-0.249308
C	5.398043	2.602649	0.034458
C	5.072786	3.772286	-0.773995
C	4.79015	4.735909	-1.451635
H	0.822611	-1.088938	0.317554
H	1.356069	0.086879	1.665164
H	2.212096	0.08885	-1.299318
H	2.911213	1.90604	1.115259
H	2.690168	2.490327	-0.540418
H	4.628402	1.093212	-1.306457
H	4.878105	0.537915	0.351695
H	6.455296	2.336909	-0.13578
H	5.321433	2.876452	1.102019
H	4.540058	5.591745	-2.050681
