13
-1464.9
C          1.05978        0.02357        0.21675
C          2.37019       -0.04056       -0.03332
C          3.25071       -1.23802       -0.16791
C          4.59569       -0.65476       -0.47090
C          4.60110        0.68351       -0.51503
C          3.23121        1.15357       -0.24356
O          2.88605        2.31836       -0.20348
H          0.55228        0.98282        0.28200
H          0.46624       -0.87270        0.35944
H          2.92226       -1.88480       -0.98735
H          3.28706       -1.81210        0.76329
H          5.47264       -1.26601       -0.63566
H          5.42337        1.34951       -0.70973
