16
-1612.55
C          0.92690       -0.38159        0.01611
C          2.31428        0.11675        0.27461
C          2.77626        1.38026        0.20906
C          1.93151        2.58007       -0.13139
N          4.11596        1.58082        0.48084
C          4.82043        2.75276        0.47276
O          6.01684        2.80809        0.73189
H          0.96391       -1.19685       -0.71383
H          0.24825        0.37591       -0.37826
H          0.49815       -0.77613        0.94255
H          3.00583       -0.68202        0.54167
H          0.87726        2.34267       -0.28601
H          2.29302        3.05189       -1.05136
H          1.96825        3.31504        0.68016
H          4.69007        0.77903        0.71766
H          4.23801        3.64900        0.21475
