12
-1257.13
C          0.85431        0.01649       -0.00590
C          2.33850        0.02116       -0.00291
C          3.22494        1.07504       -0.00352
O          2.81711        2.34956       -0.00709
N          4.55838        0.76348       -0.00038
C          4.68383       -0.54574        0.00248
S          3.22513       -1.45022        0.00147
H          0.45184        1.03457        0.00318
H          0.46592       -0.50230        0.87695
H          0.47010       -0.48523       -0.90035
H          3.62934        2.88486       -0.00677
H          5.64927       -1.03425        0.00526
