18

C	0.949311	-0.044164	0.129073
N	2.382728	0.106363	0.208223
C	2.866327	1.476791	0.22752
C	2.437555	2.194157	1.501954
C	4.384177	1.444382	0.102751
C	5.054418	2.764729	-0.142551
O	4.490918	3.817524	-0.284584
H	0.698417	-1.104268	-0.023784
H	0.470611	0.541211	-0.687399
H	0.469179	0.261964	1.071606
H	2.813793	-0.386089	-0.570271
H	2.474531	2.065753	-0.633959
H	2.796003	1.640405	2.384502
H	1.34294	2.274136	1.570957
H	2.84331	3.21397	1.519226
H	4.695388	0.790787	-0.737344
H	4.840823	0.977381	0.995301
H	6.174492	2.706759	-0.204592
