19
-1776.73
C          2.96616       -1.01974       -0.59102
N          2.34327        0.15501        0.01859
C          1.73048       -0.20096        1.29819
C          3.30441        1.26468        0.16779
C          3.56764        2.17534       -1.00163
C          2.79793        2.69054        0.17506
N          3.40596        3.68775        1.05894
H          3.38053       -0.76867       -1.57389
H          2.22560       -1.81083       -0.75377
H          3.77608       -1.42306        0.02789
H          0.97374       -0.98170        1.16208
H          1.21645        0.66411        1.73215
H          2.47137       -0.55677        2.02360
H          4.16149        1.04328        0.80150
H          3.01830        2.00581       -1.92053
H          4.58085        2.52546       -1.15568
H          1.73069        2.83428        0.01741
H          4.40048        3.51185        1.19232
H          2.98354        3.63985        1.98578
