16

C	1.035329	0.052011	-0.03458
C	0.671616	0.651805	1.298108
C	-0.467841	0.158757	2.101571
N	0.897964	-0.188515	2.463786
C	2.516761	0.112381	-0.29321
C	3.40904	-0.935038	0.20154
O	3.057226	-0.855675	-1.164772
H	0.722345	-1.003212	-0.059818
H	0.492564	0.574879	-0.840536
H	0.901222	1.722241	1.397963
H	-1.07832	-0.669525	1.723836
H	-1.019733	0.88061	2.715014
H	1.216516	0.359882	3.260433
H	2.935032	1.123435	-0.421684
H	2.975222	-1.770484	0.766313
H	4.454056	-0.697341	0.440017
