15
-1545.29
C          2.19228       -0.50024       -1.44624
C          2.48056        0.08731       -0.07443
C          3.30076        1.36278       -0.20255
C          2.58624        2.62959       -0.68991
C          2.91509        3.13619        0.72156
O          2.75350        4.14831        1.36246
O          3.50385        1.97501        1.10573
H          1.62018       -1.42808       -1.35022
H          3.12177       -0.72435       -1.97956
H          1.61298        0.19576       -2.06110
H          3.03367       -0.64866        0.52058
H          1.53633        0.28159        0.44756
H          4.26990        1.19407       -0.68942
H          1.51588        2.54648       -0.88747
H          3.09081        3.17842       -1.48707
