20
-1858.92
C          1.01711        0.09888        0.04131
C          2.50749       -0.11952       -0.19666
C          2.71913       -1.06601       -1.37439
O          3.08114        1.16689       -0.44879
C          4.51363        1.16965       -0.42566
C          5.00678        2.62124       -0.46191
N          4.62862        3.34146        0.75882
H          0.86101        0.78308        0.88257
H          0.50517       -0.84344        0.26039
H          0.54329        0.56121       -0.83204
H          2.94570       -0.54514        0.71405
H          2.40074       -0.60057       -2.31337
H          2.16578       -2.00040       -1.23704
H          3.77741       -1.32095       -1.48819
H          4.89106        0.64618       -1.30972
H          4.88173        0.66426        0.47495
H          4.56250        3.13698       -1.32045
H          6.09556        2.64451       -0.56805
H          3.62498        3.19853        0.89663
H          4.75431        4.34090        0.60858
