15
-1548.39
C          0.97303        0.05068        0.03600
C          2.44652       -0.02491        0.02581
C          3.28990       -1.06537       -0.06431
C          4.74120       -0.68106       -0.05614
N          4.65307        0.75095        0.14815
C          3.34623        1.13892        0.09630
N          2.94612        2.35724        0.07546
H          0.52492       -0.94459       -0.04469
H          0.61144        0.65139       -0.80405
H          0.61796        0.50548        0.96574
H          2.96927       -2.09422       -0.14283
H          5.27964       -1.16004        0.76599
H          5.21766       -0.91948       -1.01136
H          5.33059        1.33238       -0.32415
H          3.76123        2.96777        0.15611
