14

O	1.956308	-0.337832	-1.211194
C	2.37019	0.149039	0.035555
C	3.215109	1.376981	-0.210237
C	2.48776	2.651947	-0.654833
C	3.007532	3.219152	0.671502
O	3.629689	1.980608	1.015235
H	1.434798	-1.133287	-1.074472
H	2.981655	-0.581679	0.60298
H	1.519247	0.436419	0.687322
H	4.073538	1.097052	-0.849887
H	1.396845	2.547859	-0.741166
H	2.876804	3.126344	-1.564666
H	3.740105	4.041302	0.580039
H	2.239949	3.519495	1.407132
