19

N	1.133796	2.145592	0.380314
C	2.473023	1.917737	-0.127694
C	3.403126	1.457086	0.981843
C	4.797381	1.124408	0.49588
C	5.722013	2.255264	-0.001685
C	6.828002	1.547735	0.797525
N	5.785974	0.838386	1.541736
H	0.51705	2.464922	-0.363371
H	1.147517	2.890222	1.07601
H	2.92984	2.801105	-0.628638
H	2.419304	1.129822	-0.900889
H	2.957831	0.575956	1.474836
H	3.490901	2.238206	1.758306
H	4.734774	0.322975	-0.273378
H	5.445631	3.226751	0.435055
H	5.861105	2.370253	-1.085409
H	7.454486	0.903201	0.148178
H	7.500313	2.172177	1.410737
H	5.956152	-0.141287	1.756134
