16
-1655.44
C          0.98781        0.01042        0.14272
C          2.52000        0.00000        0.00000
C          3.12927       -0.74743        1.19930
C          2.87674       -0.76564       -1.27269
C          3.55456       -0.32868       -2.34528
C          3.00202        1.36117        0.00000
N          3.38623        2.44616        0.00000
H          0.51014        0.52975       -0.69771
H          0.67588        0.52438        1.06039
H          0.57882       -1.00646        0.17933
H          2.87751       -0.25452        2.14654
H          4.22407       -0.78486        1.13460
H          2.76541       -1.78027        1.25854
H          2.52975       -1.79986       -1.30088
H          3.94664        0.68154       -2.42712
H          3.73764       -0.98912       -3.18902
