14
-1414.88
C          0.93745       -0.01258       -0.39883
C          2.24802        0.54588        0.03598
N          3.45722       -0.27251       -0.03984
C          3.31524        0.87280       -0.97614
C          4.25638        1.99650       -0.73004
O          5.14279        1.73596        0.26076
O          4.21675        3.03221       -1.37139
H          0.24632        0.80045       -0.64241
H          0.49336       -0.60572        0.40685
H          1.03052       -0.65345       -1.28212
H          2.15257        1.18454        0.90821
H          3.26891       -1.15081       -0.53470
H          3.15342        0.62081       -2.01738
H          4.92396        0.83847        0.60547
