10
-1101.34
O          0.94378        0.07079       -0.00000
N          2.34611       -0.01680       -0.00000
C          2.92856        1.14017       -0.00000
C          2.16945        2.35998       -0.00000
C          1.55671        3.39383       -0.00000
C          4.36198        1.06541        0.00000
C          5.56227        1.02154        0.00000
H          0.67486       -0.86674       -0.00000
H          1.01196        4.30903       -0.00000
H          6.62734        0.98490       -0.00000
