21

C	1.356964	-0.227534	-0.042874
N	2.74091	0.169013	-0.137443
C	3.048881	1.599497	-0.072726
C	2.593794	2.349693	-1.331764
C	2.421677	2.220596	1.17145
C	4.580645	1.69932	0.05132
N	5.253941	0.918081	-0.971239
H	1.27737	-1.30533	-0.251954
H	0.661271	0.293446	-0.735224
H	0.972634	-0.075986	0.978348
H	3.137074	-0.180083	-1.007917
H	3.160416	1.985557	-2.202422
H	2.768513	3.4337	-1.238066
H	1.519236	2.201814	-1.521063
H	2.658257	1.619573	2.063223
H	1.327195	2.295282	1.084042
H	2.809546	3.239153	1.325444
H	4.859451	1.402022	1.082086
H	4.86547	2.758586	-0.064007
H	5.368117	-0.041285	-0.652497
H	6.186857	1.275986	-1.151956
