14

N	1.020874	-0.067562	-0.235546
C	2.449788	-0.039507	-0.058682
C	2.972388	1.417078	-0.011619
C	2.405867	2.172195	1.109318
C	1.938743	2.791065	2.037727
C	4.438038	1.443277	0.009764
C	5.64796	1.433366	0.021796
H	0.633863	-0.969165	0.025888
H	0.762618	0.102571	-1.204553
H	3.034494	-0.566448	-0.840599
H	2.705548	-0.517322	0.899801
H	2.642744	1.91163	-0.946422
H	1.523391	3.336769	2.864356
H	6.722305	1.432782	0.03753
