21
-2047.12
C          2.85236       -1.01955       -0.36618
C          2.34284        0.27892        0.24084
C          3.39227        1.34975        0.20055
C          3.47646        2.29030       -0.97369
C          3.06571        2.82552        0.38250
C          1.63756        3.27046        0.56635
C          4.06346        3.66069        1.14411
H          2.07684       -1.79056       -0.32424
H          3.73039       -1.38789        0.17408
H          3.13844       -0.87590       -1.41300
H          2.05624        0.10140        1.28423
H          1.43720        0.58184       -0.29659
H          4.32483        0.99805        0.63265
H          2.72606        2.21627       -1.75331
H          4.46342        2.53616       -1.35315
H          0.95151        2.78510       -0.13460
H          1.55132        4.35059        0.40601
H          1.30068        3.04816        1.58409
H          5.09205        3.31641        0.98836
H          3.85378        3.61692        2.21824
H          4.00976        4.70684        0.82410
