18

N	1.075157	-0.060292	0.184072
C	2.506565	-0.080518	-0.066813
C	3.018279	1.358066	-0.035245
O	2.541859	1.978243	1.124339
C	4.538453	1.439844	-0.060639
C	5.038765	2.84865	-0.049138
C	5.861604	3.381787	-0.953077
H	0.728394	-0.965319	0.488055
H	0.557527	0.194312	-0.655043
H	2.80643	-0.573333	-1.013519
H	2.990662	-0.632272	0.756229
H	2.632168	1.878057	-0.943169
H	1.663011	1.577789	1.251745
H	4.924663	0.898768	-0.941007
H	4.905929	0.915765	0.841126
H	4.664116	3.464076	0.777114
H	6.246566	2.794805	-1.794305
H	6.186983	4.423443	-0.886714
