15
-1557.24
C          0.99626       -0.00477        0.03478
C          2.51227        0.03100        0.00513
C          3.09033        1.15558        0.83797
C          4.44741        0.61144        1.20265
O          4.25393       -0.79449        1.35567
C          3.14118       -1.17402        0.65695
O          2.75613       -2.32668        0.55805
H          0.61831       -0.83290       -0.57398
H          0.57702        0.92642       -0.35907
H          0.61691       -0.15026        1.05215
H          2.87955        0.08703       -1.02626
H          2.49808        1.30818        1.74912
H          3.14400        2.10914        0.30523
H          5.18908        0.77921        0.41460
H          4.82057        1.03690        2.13844
