18
-1751.01
C          0.91395       -0.02171        0.12155
C          2.43162       -0.00576       -0.02735
C          2.84949        0.02164       -1.49816
C          3.14467        1.05951        0.85855
C          4.19840       -0.00734        1.21069
C          3.16407       -1.08330        0.82475
H          0.61176       -0.04151        1.17444
H          0.48374       -0.90419       -0.36347
H          0.46732        0.86818       -0.33468
H          3.93802        0.03444       -1.61505
H          2.45277        0.91173       -1.99803
H          2.47047       -0.85989       -2.02536
H          2.56293        1.39145        1.72734
H          3.52746        1.94348        0.34083
H          5.08105        0.01069        0.56143
H          4.52818       -0.02092        2.25251
H          3.56470       -1.94337        0.28027
H          2.58998       -1.45326        1.68277
