15
-1647.73
C          1.20343       -0.23623       -0.63458
C          2.47463       -0.03358       -0.26824
C          3.11511        1.25524       -0.16396
C          4.41904        1.40354        0.14598
C          4.79235        2.85516        0.19058
C          3.49189        3.51783       -0.13627
C          2.54973        2.58489       -0.33279
H          0.80217       -1.24331       -0.68746
H          0.53337        0.57652       -0.89182
H          3.08661       -0.90128       -0.02890
H          5.11887        0.60399        0.33923
H          5.55658        3.09019       -0.55572
H          5.14489        3.14214        1.18548
H          3.34350        4.58488       -0.19891
H          1.51700        2.77854       -0.57848
