19

C	1.650123	-0.233649	2.639313
C	0.895119	-0.01329	1.339235
C	1.820916	0.191557	0.159983
O	1.042212	0.397997	-0.991488
C	1.67705	0.601452	-2.159871
C	2.996239	0.631103	-2.396607
C	3.573008	0.86834	-3.755206
H	0.958748	-0.386211	3.480748
H	2.288567	0.629743	2.887613
H	2.302176	-1.120614	2.58274
H	0.23499	0.86647	1.418273
H	0.239759	-0.8726	1.120192
H	2.479008	-0.689728	0.021181
H	2.484282	1.063123	0.331776
H	0.951517	0.753576	-2.966631
H	3.702386	0.475351	-1.575709
H	2.785583	1.018445	-4.509846
H	4.195064	0.019749	-4.08871
H	4.222733	1.760146	-3.771644
