17
-1601.04
C          2.57473       -0.53204        0.02934
O          3.84796        0.07325        0.28025
C          4.12249        1.32783       -0.15461
N          3.25965        2.06689       -0.76200
N          5.40699        1.72740        0.12022
C          6.40853        0.78314        0.58983
C          5.91808        2.93646       -0.51036
H          2.61383       -1.56108        0.39697
H          2.36653       -0.55819       -1.04434
H          1.79028        0.00179        0.57317
H          2.36532        1.59531       -0.85252
H          6.04070        0.21069        1.44831
H          7.31777        1.29565        0.92233
H          6.68219        0.08660       -0.20952
H          5.21337        3.76816       -0.40314
H          6.09905        2.76242       -1.57633
H          6.85909        3.25931       -0.05219
