17
-1763.5
C          0.89935       -0.55347        0.00452
C          2.35632       -0.21270        0.08447
C          2.93986        1.00087       -0.04491
C          2.10251        2.19869       -0.11269
C          2.43229        3.31790       -0.77146
C          4.39631        1.11045        0.09868
C          5.30893        0.23248       -0.34009
H          0.76808       -1.44057       -0.62408
H          0.29001        0.24113       -0.43379
H          0.51416       -0.78401        1.00224
H          2.98520       -1.08579        0.25166
H          1.15283        2.17264        0.41709
H          3.35989        3.40705       -1.32774
H          1.76266        4.17166       -0.77588
H          4.74705        2.01933        0.58552
H          5.03637       -0.67697       -0.86432
H          6.36735        0.42257       -0.19303
