15
-1484.2
N          1.01625       -0.02207        0.05514
C          2.47000        0.00000        0.00000
C          2.95202        1.36117        0.00000
C          3.34930        2.48307        0.00000
C          3.95021        3.78108        0.06072
C          3.90822        4.66776       -1.15560
N          3.09472        4.96302        0.01624
H          0.68979       -0.97493       -0.08500
H          0.64870        0.52841       -0.71960
H          2.80552       -0.52104       -0.90304
H          2.86812       -0.54890        0.85937
H          4.82727        3.85970        0.69653
H          3.36731        4.33312       -2.03156
H          4.75077        5.31982       -1.34563
H          3.50344        5.71060        0.57786
