19
-1865.6
O          2.06520       -0.20968       -1.45286
C          2.33683        0.06926       -0.08606
C          3.03569        1.41627        0.02616
C          2.17162        2.59311       -0.42236
C          2.90827        3.79681        0.14778
C          3.52479        3.31269        1.45949
C          3.39456        1.78958        1.46213
H          1.62320       -1.07522       -1.48489
H          2.97598       -0.72749        0.30822
H          1.39034        0.06265        0.46475
H          3.94558        1.40343       -0.58950
H          1.16547        2.52892        0.00940
H          2.07312        2.65234       -1.51061
H          3.70415        4.10750       -0.53956
H          2.24443        4.65420        0.29450
H          4.57408        3.62031        1.52442
H          3.00468        3.74155        2.32294
H          4.31728        1.30257        1.79375
H          2.59741        1.49264        2.15461
