16
-1617.24
C          3.13653       -0.39808        1.37987
C          2.91401        0.17080       -0.01409
C          2.91648        1.67680       -0.01065
C          1.78711        2.40491       -0.05004
C          4.25314        2.33684       -0.06440
N          4.36410        3.50112        0.62913
O          5.21472        1.83479       -0.62974
H          3.13705       -1.49193        1.34432
H          2.34117       -0.08442        2.06398
H          4.09451       -0.07265        1.79720
H          1.95856       -0.20563       -0.40182
H          3.68295       -0.21218       -0.69596
H          0.81389        1.92298       -0.04542
H          1.79374        3.48798       -0.11540
H          3.63483        3.85054        1.23241
H          5.27942        3.92777        0.67228
