13
-1323.22
N          2.67798       -0.64086        1.35413
C          2.46874       -0.02858        0.04484
C          2.96470        1.39699        0.00000
C          2.11615        2.43563       -0.08488
C          4.34716        1.65322        0.00000
C          5.51739        1.87011        0.00000
H          2.26126       -1.56921        1.35890
H          2.17957       -0.09582        2.05538
H          1.39972       -0.07608       -0.19801
H          2.98757       -0.62234       -0.71742
H          1.04116        2.29093       -0.10326
H          2.47587        3.45965       -0.13259
H          6.56526        2.05870        0.00589
