17
-1614.89
C          0.93936        0.01303        0.01381
C          2.45356        0.00438        0.01361
C          3.15830        1.00397        0.95497
N          4.15967       -0.04590        1.26099
C          3.15108       -1.07413        0.88270
C          3.76170       -2.25667        0.15542
H          0.55076       -0.84174       -0.54813
H          0.56021        0.92553       -0.45606
H          0.53349       -0.03776        1.02980
H          2.84733        0.05506       -1.01170
H          2.57488        1.31063        1.83134
H          3.56515        1.89861        0.47525
H          4.96660       -0.01697        0.63647
H          2.55302       -1.40280        1.74392
H          4.38051       -1.94386       -0.69220
H          2.97446       -2.91201       -0.23024
H          4.38571       -2.84872        0.83215
