11
-1237.66
O          1.17445        0.09435        0.41159
C          2.31401       -0.02996        0.02490
O          3.12424        0.92371       -0.50994
C          4.21520       -0.01674       -0.69063
C          3.39578       -1.13528       -0.04223
C          3.05824       -2.26311       -0.88288
C          2.78351       -3.20383       -1.57705
H          4.46463       -0.13597       -1.74997
H          5.10709        0.29032       -0.13570
H          3.75293       -1.42097        0.95337
H          2.53295       -4.03877       -2.19133
