18
-1789.03
C          3.01445       -1.08591       -0.53806
N          2.47731        0.05994        0.18407
C          3.25823        1.27888       -0.05380
C          3.20767        1.81892       -1.49699
C          3.34761        3.29607       -1.30043
C          3.10911        3.64787       -0.03187
C          2.77291        2.45961        0.81316
H          2.41771       -1.97293       -0.30354
H          4.04990       -1.29329       -0.24966
H          2.96522       -0.93988       -1.62129
H          2.47699       -0.14666        1.18286
H          4.30905        1.08505        0.21325
H          2.25797        1.59992       -1.99587
H          4.02676        1.41056       -2.09772
H          3.56845        3.98737       -2.10174
H          3.10987        4.66391        0.33749
H          3.29676        2.48088        1.77356
H          1.69380        2.43163        0.99957
