19
-1851.37
C          2.93289       -1.06801        0.68941
C          2.67811       -0.09072       -0.45527
C          3.07609        1.37287       -0.16081
C          2.71346        2.25396       -1.36029
O          2.30970        1.84727        0.94445
C          4.55870        1.50611        0.12453
C          5.13267        2.09965        1.18141
H          2.63390       -2.07693        0.38866
H          2.35253       -0.80309        1.57751
H          3.99104       -1.10260        0.96201
H          1.60473       -0.13129       -0.68454
H          3.20836       -0.45090       -1.34707
H          3.24555        1.94932       -2.26792
H          2.94706        3.30622       -1.16059
H          1.63666        2.21247       -1.56175
H          2.62025        1.37604        1.73477
H          5.21745        1.07997       -0.63218
H          4.55161        2.57749        1.96355
H          6.21342        2.14222        1.27180
