18

C	-0.85504	0.016054	-1.140912
C	-0.641085	1.072079	-0.027786
C	-1.163008	0.002563	0.957299
C	-0.591871	-1.036976	-0.042403
N	0.838121	-1.232622	0.131943
C	1.612956	-0.019229	-0.103391
C	0.855932	1.283624	0.216862
H	-1.905287	-0.016553	-1.463979
H	-0.20838	0.022979	-2.031933
H	-1.186429	2.026491	-0.096391
H	-0.75348	-0.001731	1.982201
H	-2.263253	-0.020493	1.001176
H	-1.095897	-2.01445	-0.121093
H	1.009584	-1.592081	1.067648
H	1.905689	0.005684	-1.166947
H	2.557659	-0.081232	0.45685
H	1.247627	2.098361	-0.415004
H	1.005733	1.594852	1.265368
