18
-1775.27
N          1.93144       -0.73094       -1.13077
C          2.68995       -0.35309        0.05107
C          2.93176        1.12016        0.03055
C          4.14938        1.69010        0.02514
C          4.38318        3.17266       -0.00114
C          5.15127        3.62071        1.20799
C          6.35690        4.20328        1.16538
H          1.78901       -1.73905       -1.12348
H          2.49618       -0.53363       -1.95604
H          3.62815       -0.91748        0.08411
H          2.11708       -0.61017        0.94806
H          2.04300        1.74761        0.02718
H          5.03844        1.06272        0.02457
H          3.43375        3.72015       -0.03321
H          4.92313        3.42289       -0.92208
H          4.67542        3.46378        2.17415
H          6.86945        4.38751        0.22626
H          6.85753        4.51008        2.07870
