11

C	2.790665	-1.120353	0.433443
C	2.221877	0.059101	0.156171
C	2.943711	1.311806	0.087718
C	2.554018	2.600454	-0.168815
N	3.677313	3.371227	-0.100748
N	4.678522	2.668429	0.167858
O	4.259154	1.345324	0.297161
H	2.196155	-2.035377	0.471227
H	3.862984	-1.198731	0.630623
H	1.1484	0.132112	-0.03991
H	1.57285	3.010519	-0.390568
