16
-1647.96
C          1.40974        0.41443       -0.44397
C          2.64558       -0.08862        0.22586
C          2.82921       -1.60008        0.35135
C          4.29643       -1.84243        0.07565
C          4.90876       -0.67006       -0.17171
C          4.01265        0.49111       -0.11615
N          3.35527        0.81957        1.13794
H          1.44064        1.49764       -0.60440
H          0.53071        0.18919        0.16862
H          1.27766       -0.06336       -1.42009
H          2.22233       -2.13634       -0.38595
H          2.55849       -1.94299        1.35516
H          4.76881       -2.81249        0.08440
H          5.96295       -0.57014       -0.39485
H          4.08993        1.25509       -0.87831
H          3.78035        0.30404        1.90985
