13

C	0.958344	0.01506	0.043952
C	2.172494	-0.02942	-0.003846
C	3.584373	-0.030785	-0.055802
C	4.40175	-1.101132	-0.12273
O	5.712342	-0.820004	-0.137425
C	5.845313	0.606232	-0.245128
C	4.460706	1.202438	0.0451
H	-0.114456	0.047589	0.086118
H	4.14127	-2.159875	-0.152021
H	6.180286	0.83238	-1.271432
H	6.628699	0.928502	0.454772
H	4.182384	1.981026	-0.68067
H	4.388546	1.650258	1.051264
