16

C	2.866267	-0.874833	-0.279832
O	2.808398	0.075568	0.747465
C	3.036134	1.397873	0.321784
C	2.40978	2.344627	1.327228
C	4.527927	1.724246	0.171596
N	5.346312	0.868236	0.826245
O	4.90138	2.696368	-0.451085
H	2.66531	-1.859586	0.165169
H	3.859089	-0.904744	-0.76803
H	2.104307	-0.679759	-1.058308
H	2.58895	1.570618	-0.676149
H	2.846216	2.179423	2.323976
H	1.326442	2.169084	1.388014
H	2.596866	3.38471	1.026605
H	4.948662	0.110457	1.365237
H	6.341571	1.045722	0.832684
