14
-1433.53
C          0.83184        0.09779        0.15797
C          2.31652       -0.00651        0.01238
C          3.11024        1.05289       -0.20174
C          4.59058        0.99166       -0.35240
C          5.29603       -0.33591       -0.27081
O          5.20669        2.03966       -0.54152
H          0.33925       -0.50099       -0.61435
H          0.47722        1.12933        0.06808
H          0.52611       -0.28421        1.13684
H          2.72431       -1.01032        0.09178
H          2.70190        2.05675       -0.28043
H          4.93974       -1.00138       -1.06141
H          5.14078       -0.78508        0.71346
H          6.37043       -0.18266       -0.41174
