14

N	1.390015	0.074568	0.983092
C	1.926332	0.395664	-0.212759
O	1.483448	0.072633	-1.295879
C	3.190712	1.237546	-0.10748
C	3.053005	2.676565	-0.623067
C	3.254636	3.054276	0.848764
O	3.480713	1.688637	1.219021
H	1.837202	0.410422	1.826863
H	0.55065	-0.487207	1.01831
H	4.018545	0.650465	-0.54246
H	2.083553	2.922422	-1.075876
H	3.859576	2.994967	-1.295616
H	4.126527	3.690598	1.076081
H	2.367516	3.477233	1.353445
