15
-1603.11
C          0.96752        0.43788       -1.05741
C          2.13740        0.28143       -0.84314
C          3.52184        0.09061       -0.58984
C          4.35348        1.12637       -0.40449
C          5.78949        1.02472       -0.12820
C          6.71237        0.53705       -1.21421
C          6.72685        1.98355       -0.81470
H         -0.07135        0.57774       -1.24775
H          3.89712       -0.92738       -0.55088
H          3.94440        2.13536       -0.44192
H          6.03240        0.74877        0.89400
H          6.29879        0.28560       -2.18459
H          7.55496       -0.07942       -0.92212
H          7.57985        2.34653       -0.25243
H          6.32465        2.70446       -1.51771
