14
-1458.99
C          0.90459        0.05216       -0.01023
C          2.40770        0.00759       -0.00581
C          3.01754       -1.36951       -0.00902
C          3.13902        1.13799        0.00000
C          4.54502        1.13799        0.00000
C          5.73518        1.13799        0.00000
H          0.52003        1.07712       -0.00888
H          0.50903       -0.45363        0.87628
H          0.51445       -0.44943       -0.90155
H          2.24558       -2.14506        0.02704
H          3.66144       -1.51329        0.86430
H          3.60149       -1.53247       -0.92005
H          2.64646        2.10649        0.00232
H          6.80013        1.13617       -0.00000
