13
-1333.28
O          0.84708        0.03402        0.16553
C          2.07770        0.01731        0.08532
C          2.88051        1.27779       -0.13339
N          4.21648        1.06601        0.42412
N          4.95404        0.01057        0.00608
C          4.30500       -1.10576       -0.13059
C          2.83652       -1.27828        0.10356
H          2.39205        2.10630        0.38778
H          2.93077        1.49303       -1.20504
H          4.76418        1.92757        0.35297
H          4.87397       -2.00774       -0.41119
H          2.44755       -1.92180       -0.69141
H          2.69637       -1.77373        1.06822
