13
-1361.71
C          1.03361        0.21312        0.70000
C          2.15331        0.24553       -0.03442
C          3.30286        1.12878        0.18494
O          3.94066        1.81943       -0.90378
C          3.13519        2.61464       -0.02301
C          3.89432        3.55644        0.81445
O          3.44454        3.95405        1.88228
H          0.23290       -0.48092        0.46396
H          0.89196        0.87692        1.54766
H          2.24082       -0.44544       -0.87130
H          3.95219        0.80239        0.99184
H          2.19030        2.98339       -0.40135
H          4.87253        3.88945        0.42924
