17

C	1.011389	0.055171	-0.069107
C	2.535351	-0.037923	0.040024
C	2.986453	-0.018641	1.491505
C	3.061177	-1.245905	-0.764981
C	3.340126	-0.591649	-2.089102
N	3.379091	0.685881	-2.01366
N	3.168975	1.059308	-0.719906
H	0.700257	0.055675	-1.125199
H	0.642018	0.980015	0.402826
H	0.525051	-0.795774	0.433163
H	4.0836	-0.059989	1.55458
H	2.564735	-0.871406	2.045748
H	2.650971	0.903328	1.992923
H	2.341574	-2.078214	-0.813922
H	3.996484	-1.6434	-0.328304
H	3.556591	-1.099097	-3.031465
H	2.722245	1.96941	-0.657693
