15
-1524.77
O          0.98516        0.06711        0.01702
C          2.39766        0.04631       -0.02988
C          2.97069        1.13423        0.84347
C          4.32739        0.56700        1.19389
O          4.15053       -0.84994        1.35181
C          3.01128       -1.16160        0.61623
C          2.54969       -2.41693        0.60258
H          0.67273       -0.71028       -0.47334
H          2.73833        0.14820       -1.06635
H          2.36125        1.27224        1.74580
H          3.03176        2.10374        0.34020
H          5.05636        0.73704        0.39238
H          4.72293        0.99034        2.12207
H          1.65061       -2.69821        0.07040
H          3.07723       -3.19685        1.14301
