13
-1418.39
C          1.00000        0.00000        0.00000
C          2.19016        0.00000        0.00000
C          3.63416        0.00000        0.00000
C          4.21862       -1.24555       -0.68790
C          4.70202       -0.68476       -1.97285
C          4.61990        0.63826       -1.90636
O          4.11437        1.15845       -0.73315
H         -0.06558        0.00870       -0.00533
H          4.01106        0.07550        1.02657
H          3.48809       -2.04873       -0.82830
H          5.06734       -1.64453       -0.12082
H          5.08481       -1.25436       -2.80525
H          4.91321        1.37097       -2.63874
