22
-2060.31
C          1.23751       -0.71608        1.65085
C          2.72629       -0.39942        1.63867
C          3.06737        1.03378        1.17214
C          2.34500        2.13532        1.98035
C          2.69075        2.18220        3.46207
C          4.60322        1.19596        1.15924
N          5.02568        2.50453        0.67171
H          1.08361       -1.78024        1.85590
H          0.77753       -0.48688        0.68485
H          0.71435       -0.15462        2.42967
H          3.21771       -1.11323        0.96482
H          3.14040       -0.58611        2.63694
H          2.71738        1.12699        0.13387
H          1.26047        2.01389        1.87593
H          2.56673        3.11585        1.54089
H          2.45031        1.24062        3.96304
H          2.11436        2.97395        3.95219
H          3.75026        2.40082        3.62023
H          5.04588        0.42837        0.51417
H          5.01424        1.04094        2.16367
H          4.69762        2.63643       -0.28466
H          6.04291        2.53975        0.63475
