13
-1421.47
C          1.01302       -0.30009        0.13876
C          2.48396       -0.03053        0.13477
C          3.13902        1.13799        0.00000
C          2.41982        2.43991       -0.13676
O          2.98851        3.51140       -0.31483
C          4.54502        1.13799        0.00000
C          5.73518        1.13799        0.00000
H          0.79522       -1.13371       -0.53802
H          0.40559        0.54482       -0.19110
H          0.69025       -0.58845        1.14424
H          3.08437       -0.93444        0.24876
H          1.32409        2.40171       -0.06083
H          6.80021        1.15235       -0.00223
