20

C	0.852702	0.088761	0.189407
C	2.349177	-0.075178	0.042067
C	3.259635	0.972446	0.712086
N	3.90485	-0.063596	1.526573
C	3.10614	-1.142614	0.899666
C	2.279405	-1.893887	1.931982
C	3.924448	-2.112777	0.061195
H	0.310095	-0.805767	-0.155561
H	0.495854	0.941856	-0.409569
H	0.562042	0.27731	1.234083
H	2.596561	-0.205434	-1.024386
H	2.718741	1.721895	1.319238
H	3.922117	1.523513	0.02113
H	4.906604	-0.153645	1.380908
H	1.72232	-1.196937	2.573044
H	2.94562	-2.479891	2.585049
H	1.56494	-2.585615	1.457066
H	4.546287	-1.574087	-0.672187
H	3.269836	-2.805104	-0.493033
H	4.590545	-2.719012	0.698123
