10
-1120.81
N          1.00000        0.00000        0.00000
C          2.15101        0.00000        0.00000
C          3.59501        0.00000        0.00000
C          4.15128        1.11226       -0.80816
N          4.87060        0.71251       -1.80620
N          4.87060       -0.71601       -1.80479
C          4.15118       -1.11347       -0.80586
H          4.02097        0.00097        1.00515
H          3.97807        2.16603       -0.55116
H          3.97809       -2.16668       -0.54709
