19
-1907.89
C          1.04168       -0.02265        0.79223
C          2.46330       -0.45408        0.46578
C          3.30211        0.72365       -0.04032
C          4.72652        0.31886       -0.36026
C          5.70049        0.51726        0.54566
C          5.06530       -0.25779       -1.65388
C          4.22634       -0.50444       -2.66721
H          0.46687       -0.87140        1.17550
H          0.53365        0.35738       -0.09961
H          1.03469        0.76337        1.55397
H          2.43015       -1.25428       -0.28254
H          2.92222       -0.87770        1.36767
H          3.30739        1.50691        0.73021
H          2.82808        1.18986       -0.91253
H          5.48564        0.95004        1.51822
H          6.73506        0.25027        0.35342
H          6.11516       -0.50955       -1.80788
H          3.16407       -0.29414       -2.62286
H          4.60032       -0.93604       -3.59098
