17

N	1.077233	-0.03892	0.408943
C	2.492241	-0.015243	0.084226
C	2.874345	-1.346264	-0.582141
C	2.532048	-1.115202	-2.047782
C	3.546709	-0.428684	-2.878859
N	2.445242	0.318647	-2.302494
C	2.739385	1.002113	-1.040366
H	0.772897	0.867065	0.759369
H	0.89239	-0.714407	1.14781
H	3.150923	0.198241	0.953344
H	2.314928	-2.189274	-0.151148
H	3.946943	-1.557086	-0.443469
H	1.762839	-1.742196	-2.51224
H	4.548471	-0.30633	-2.443051
H	3.539055	-0.516951	-3.971622
H	3.78206	1.365372	-1.013156
H	2.086121	1.882849	-0.932495
