12

N	1.042972	0.306572	0.00618
S	2.684242	-0.015546	0.007985
O	3.017565	-0.619586	1.286515
O	3.01787	-0.63264	-1.26423
C	3.357163	1.669061	-0.000505
C	4.803759	1.660455	-0.000176
C	6.012734	1.645867	-0.000115
H	0.612615	-0.067345	-0.837276
H	0.612393	-0.059152	0.853113
H	2.942144	2.160337	0.893049
H	2.942543	2.151146	-0.899223
H	7.087372	1.62518	0.000193
