15

C	1.802282	-0.965163	-0.595868
C	2.692954	-0.450751	0.249727
C	3.123449	0.9998	0.260671
C	2.719399	1.663336	1.559265
C	1.841095	2.659147	1.654419
C	4.571753	1.108277	0.056024
C	5.77048	1.185509	-0.097014
H	1.517448	-2.019309	-0.548601
H	1.323977	-0.35351	-1.367661
H	3.162201	-1.085562	1.010731
H	2.617167	1.521561	-0.570288
H	3.197664	1.262116	2.460532
H	1.35378	3.079986	0.769213
H	1.576587	3.091767	2.622602
H	6.832414	1.262957	-0.240001
