17

C	2.124018	-0.884353	-0.040393
C	2.259605	0.634558	-0.024879
C	3.449492	1.127586	-0.81332
N	3.431161	1.839441	-1.867986
N	4.668894	0.661695	-0.31277
C	5.879171	1.401718	-0.505317
C	5.282959	1.254807	0.852265
H	1.258889	-1.208701	0.557092
H	3.02705	-1.35969	0.367895
H	1.987528	-1.256746	-1.066985
H	2.367887	0.983118	1.017354
H	1.352138	1.112443	-0.425133
H	2.466745	2.036084	-2.141206
H	5.78442	2.372696	-1.003986
H	6.760939	0.814732	-0.782406
H	5.713812	0.562355	1.584152
H	4.809354	2.146078	1.283203
