13
-1418.1
C          0.84883        0.20327        0.03251
C          2.18461        0.07557       -0.01267
C          2.85513       -1.27162       -0.01236
C          3.20969       -1.64554       -1.42964
O          2.78218       -2.65136       -1.99085
C          2.98882        1.25525       -0.01936
C          3.66813        2.24538       -0.02059
H          0.36784        1.17762        0.04676
H          0.19657       -0.66520        0.04890
H          2.19940       -2.04548        0.40271
H          3.77154       -1.26120        0.58734
H          3.92324       -0.97718       -1.94188
H          4.26463        3.12795       -0.01644
