16
-1555.51
C          0.70514       -0.12843        0.12878
C          2.13025       -0.54672       -0.09911
C          2.45525       -1.83091       -0.32199
C          3.17896        0.55056       -0.10932
C          3.33479        1.27364        1.23060
O          3.84139        0.39970        2.23489
H          0.57390        0.25659        1.14553
H          0.00736       -0.96319        0.00127
H          0.41830        0.65362       -0.58154
H          1.70441       -2.61599       -0.33412
H          3.48200       -2.13553       -0.50578
H          2.91364        1.27900       -0.88376
H          4.15191        0.12815       -0.39059
H          2.39017        1.70103        1.58178
H          4.04947        2.09554        1.12347
H          3.25997       -0.38205        2.25071
