17
-1702.71
C          0.98706       -0.00419        0.03324
C          2.50064       -0.01081        0.04571
O          3.01165       -1.04442        0.90514
C          3.82857       -0.27704        1.82949
C          4.60045        0.80189        0.98321
C          3.10633        1.22764        0.73619
C          2.98570        0.96798        2.28463
H          0.61165       -0.91639       -0.44222
H          0.60252        0.86091       -0.51490
H          0.56658        0.01279        1.04334
H          2.90395       -0.14509       -0.96382
H          4.36438       -0.86730        2.57146
H          5.15011        0.42959        0.11400
H          5.23307        1.50684        1.53363
H          2.90748        2.22422        0.34565
H          3.48048        1.68852        2.94565
H          1.98805        0.75678        2.67670
