12

O	0.988376	-0.081133	0.198324
C	2.368482	-0.019511	-0.051941
C	2.837256	1.362544	-0.000238
C	3.248705	2.500785	0.075828
C	3.738736	3.879848	0.035544
O	2.810497	4.799465	-0.476215
H	0.731875	-1.00556	0.117287
H	2.631431	-0.437023	-1.046797
H	2.956563	-0.598403	0.691293
H	4.697397	3.889922	-0.523876
H	3.979752	4.22094	1.056619
H	2.443679	4.418527	-1.281899
