19

C	0.947284	-0.122949	-0.067904
C	2.466362	-0.082628	-0.04065
O	3.016242	-0.825767	-1.107249
C	3.009712	1.343507	-0.017272
C	4.533027	1.401038	0.062447
C	5.076433	2.787282	-0.062909
C	5.810197	3.421712	0.852764
H	0.512057	0.367813	0.815951
H	0.594408	-1.163642	-0.10067
H	0.560982	0.398687	-0.960791
H	2.81814	-0.600367	0.869539
H	2.697675	-0.434168	-1.929088
H	2.565425	1.894437	0.829196
H	2.662834	1.865434	-0.930924
H	4.93344	0.764996	-0.746528
H	4.872698	0.946314	1.008773
H	4.827539	3.314636	-0.994571
H	6.081916	2.941022	1.798556
H	6.172158	4.440563	0.692129
