17

C	2.049911	-0.675356	1.427448
C	2.647701	-0.184087	0.109713
C	3.012578	1.27473	0.110798
C	1.89699	2.256839	0.278709
C	4.301479	1.65581	-0.031209
C	4.762547	3.000883	-0.042151
C	5.188161	4.13966	-0.055309
H	1.828611	-1.752102	1.377493
H	1.109105	-0.158825	1.67088
H	2.749249	-0.510452	2.261957
H	1.919381	-0.362006	-0.703256
H	3.539373	-0.782754	-0.135922
H	1.094693	2.058505	-0.451886
H	2.24069	3.292334	0.154146
H	1.441407	2.167422	1.27897
H	5.070454	0.883497	-0.150969
H	5.564891	5.145413	-0.066551
