19

C	1.087916	0.095391	0.160651
C	2.595501	0.082799	-0.055424
C	3.002376	-0.756084	-1.259934
C	3.124267	1.497501	-0.201678
C	3.157431	2.401675	1.040437
C	4.656112	2.492758	0.738954
O	4.550819	1.548037	-0.322435
H	0.805177	0.685241	1.047213
H	0.699772	-0.92468	0.30162
H	0.569074	0.529709	-0.710378
H	3.082543	-0.341639	0.842345
H	2.520861	-0.381015	-2.178667
H	2.705368	-1.808524	-1.132227
H	4.091565	-0.716132	-1.40696
H	2.640212	1.975798	-1.07914
H	2.907044	1.877433	1.974519
H	2.585345	3.337113	0.986683
H	4.996749	3.483034	0.383224
H	5.342978	2.155825	1.535259
