12

O	0.979881	0.041405	-0.253519
N	2.329553	0.058776	-0.09354
C	3.149292	1.16386	-0.129823
C	4.432388	0.68531	0.000488
C	4.384315	-0.738299	0.093507
C	3.055762	-1.09401	0.023633
O	2.447847	-2.287237	0.077655
H	0.607701	0.209521	0.625703
H	2.738779	2.160139	-0.266859
H	5.331013	1.298793	0.016116
H	5.216961	-1.428897	0.197457
H	1.552678	-2.176922	-0.271388
