13

C	-1.303021	0.653896	0.019529
C	-1.039034	-0.835529	-0.121557
O	-0.205431	-1.393277	0.869726
C	0.395975	-1.059266	-0.360112
C	1.083691	0.292583	-0.354034
O	0.995145	0.966577	0.880304
C	0.056821	1.318791	-0.111761
H	-1.966694	0.995261	-0.791333
H	-1.787458	0.896081	0.979059
H	-1.82337	-1.498312	-0.509555
H	0.796979	-1.883638	-0.960057
H	1.988365	0.457517	-0.949404
H	0.13103	2.345948	-0.491466
