16

N	0.99623	-0.149033	-0.506125
C	2.353208	0.023954	0.010172
C	3.201323	-1.176417	-0.332047
C	4.08201	-0.910246	-1.300337
C	3.99931	0.516866	-1.760638
C	3.063349	1.136465	-0.747272
C	2.900999	2.436747	-0.506048
H	0.453431	0.693498	-0.321926
H	0.528934	-0.90816	-0.01163
H	2.38294	0.236036	1.101509
H	3.056861	-2.15306	0.137163
H	4.769356	-1.637895	-1.739353
H	4.977553	1.026131	-1.791169
H	3.584976	0.574305	-2.784877
H	3.434537	3.199976	-1.079461
H	2.226581	2.788713	0.281169
