16

C	0.794585	0.082538	0.090553
C	2.276851	0.07417	0.262453
C	3.101852	1.013082	-0.206506
C	4.6044	1.037931	-0.038338
C	5.197091	-0.120895	0.761764
C	5.241643	1.135108	-1.358519
N	5.74895	1.214328	-2.395865
H	0.455646	-0.821115	-0.443392
H	0.450461	0.962075	-0.473301
H	0.282346	0.077582	1.06677
H	2.69244	-0.775937	0.816289
H	2.687366	1.859388	-0.767706
H	4.862381	1.982963	0.478023
H	4.989759	-1.084776	0.274188
H	4.765929	-0.139788	1.772604
H	6.286562	-0.010965	0.85243
