15

C	0.936505	-0.054802	-0.009628
C	2.419136	0.073014	0.000252
C	3.252732	1.17774	0.007862
C	4.569457	0.652595	0.014243
C	5.860524	1.402689	0.025471
N	4.546144	-0.674473	0.00987
N	3.252635	-0.99523	0.002163
H	0.472579	0.93956	-0.001425
H	0.566271	-0.603652	0.871814
H	0.576382	-0.584031	-0.907161
H	2.950221	2.222864	0.009049
H	5.683637	2.486825	0.008851
H	6.478079	1.140649	-0.847628
H	6.449796	1.164114	0.924695
H	2.986723	-1.971203	-0.002448
