16

C	0.975314	-0.052671	0.018233
C	2.187014	-0.046245	-0.004083
C	3.641155	-0.064604	-0.004764
C	4.314713	1.142735	0.688169
C	5.591965	0.540154	1.334317
N	5.655317	-0.871192	0.969752
C	4.283025	-1.26312	0.735991
H	-0.098743	-0.056796	0.040377
H	3.982887	-0.108854	-1.055092
H	3.643015	1.56474	1.45036
H	4.532834	1.944694	-0.031803
H	6.513512	1.057855	1.029139
H	5.529448	0.629045	2.432087
H	6.180483	-0.973891	0.104152
H	4.214861	-2.205916	0.174183
H	3.76489	-1.413093	1.699882
