14

C	0.688275	0.102655	0.037205
C	2.166654	-0.088754	0.102723
C	3.060614	0.904351	-0.004505
N	4.435767	0.757487	0.050915
C	5.368468	1.768801	-0.04999
N	5.212013	3.018768	-0.209726
H	0.240224	-0.468981	-0.793355
H	0.422033	1.160964	-0.104708
H	0.191252	-0.246303	0.958685
H	2.531225	-1.113781	0.249298
H	2.720506	1.9341	-0.149925
H	4.795692	-0.178685	0.185043
H	6.396015	1.377547	0.0265
H	4.226971	3.287641	-0.267319
