21

C	1.10278	-0.233643	0.209095
C	2.623439	-0.09427	0.153753
N	3.216769	-0.810632	-0.969147
C	3.088505	1.370514	0.12819
C	2.432271	2.233834	1.199013
C	4.614059	1.460056	0.227114
N	5.078014	2.819338	0.001003
H	0.669402	0.186664	1.128769
H	0.815312	-1.296199	0.163301
H	0.633662	0.277776	-0.649433
H	3.039958	-0.547061	1.074641
H	2.804798	-0.475842	-1.840647
H	2.988953	-1.801517	-0.914856
H	2.799764	1.776532	-0.864836
H	2.537579	1.767391	2.193976
H	1.36109	2.399652	1.014227
H	2.934608	3.21079	1.228707
H	5.047557	0.704422	-0.453326
H	4.906395	1.166751	1.251976
H	4.967084	3.0655	-0.981553
H	6.072658	2.894933	0.200065
