16

C	1.029429	0.103361	0.085096
C	2.479814	0.037723	0.03581
C	3.692608	-0.044671	-0.00395
C	5.124062	-0.068185	-0.039948
C	5.807358	-1.212016	-0.210354
C	5.802883	1.274703	0.110096
N	5.466021	1.893909	1.37876
H	0.670527	1.138143	-0.028858
H	0.647042	-0.280765	1.044533
H	0.577247	-0.498998	-0.718774
H	5.29502	-2.167681	-0.340241
H	6.900636	-1.212469	-0.224903
H	5.524881	1.880353	-0.781442
H	6.893298	1.121891	0.059227
H	4.451892	1.941317	1.475607
H	5.801222	2.854544	1.39903
