13

O	1.001139	-0.111292	0.223511
C	2.36882	-0.0224	-0.079148
C	2.820925	1.364142	-0.010988
C	3.248257	2.495978	0.034028
C	3.768959	3.862384	0.087456
C	2.748889	4.893455	-0.100659
C	1.910502	5.7519	-0.252399
H	0.759225	-1.042392	0.207825
H	2.594219	-0.407434	-1.095851
H	2.98934	-0.616394	0.624202
H	4.551811	3.984879	-0.683332
H	4.273634	4.028839	1.056463
H	1.15269	6.500823	-0.391639
