15

C	2.933577	0.065578	1.78243
N	2.766708	0.377378	0.381125
N	3.089448	1.65045	0.030008
C	2.548709	2.95988	0.409063
C	3.638504	3.579128	-0.48656
C	4.094939	2.136752	-0.776754
O	4.955925	1.615367	-1.423704
H	2.653426	-0.985294	1.945534
H	2.329384	0.692373	2.469419
H	3.993161	0.176526	2.058103
H	1.847172	0.122573	0.026577
H	2.632784	3.192981	1.483611
H	1.509155	3.126836	0.079268
H	3.279605	4.11911	-1.373756
H	4.395244	4.18362	0.033246
