16

N	0.89275	0.079238	-0.181137
C	2.334372	-0.065143	-0.231166
C	3.022734	1.180983	0.303828
C	4.51957	1.046956	0.35847
C	5.384882	1.361263	-0.802197
N	5.30031	2.273137	0.327511
H	0.435628	-0.760537	-0.528916
H	0.596913	0.837185	-0.794488
H	2.742835	-0.286502	-1.242296
H	2.61601	-0.927004	0.399792
H	2.625117	1.40279	1.30826
H	2.776306	2.052559	-0.326781
H	4.87851	0.237768	1.011829
H	4.932671	1.725807	-1.732103
H	6.294188	0.766859	-0.948851
H	6.126226	2.196401	0.918094
