14

O	0.219522	0.610669	-0.396837
C	1.352581	-0.038746	0.053567
C	2.014909	-0.980058	-0.900203
C	2.685191	0.304869	-0.539069
O	3.823812	0.185677	0.252599
N	3.953464	1.270556	1.077166
C	5.001378	1.206919	1.790111
H	0.198336	1.480075	0.018152
H	1.370745	-0.325103	1.115156
H	1.586488	-1.053634	-1.902224
H	2.446128	-1.897656	-0.493794
H	2.715626	1.109964	-1.283991
H	5.181749	2.03759	2.477249
H	5.706991	0.365728	1.73122
