15

N	1.975304	-1.057941	0.852683
C	2.615438	-0.464623	-0.192647
N	2.777263	-0.887749	-1.385628
C	3.232522	0.889264	0.172365
O	2.578988	1.5043	1.254337
C	4.680711	0.67945	0.508476
C	5.254028	1.066542	1.646471
H	2.050506	-0.621572	1.762507
H	1.674161	-2.019589	0.794729
H	2.384596	-1.824724	-1.510176
H	3.177565	1.499179	-0.749207
H	1.709984	1.788043	0.953482
H	5.244899	0.158469	-0.27169
H	4.677137	1.586742	2.415118
H	6.313448	0.877759	1.836329
