15

C	1.100828	-1.055349	0.297438
C	2.392707	-0.334474	-0.081939
O	3.002491	-0.953737	-1.163352
C	2.133288	1.128428	-0.413078
O	2.385201	1.527288	-1.533504
C	1.596839	2.011925	0.650006
C	1.323307	3.295727	0.39922
H	0.632085	-0.636559	1.200124
H	1.328736	-2.11417	0.484295
H	0.384624	-1.002377	-0.536896
H	3.069311	-0.335404	0.801477
H	3.05419	-0.265183	-1.849483
H	1.441977	1.582018	1.644205
H	1.492114	3.695357	-0.605666
H	0.935713	3.96634	1.169792
