15

C	1.08005	0.125651	-0.008523
C	2.538215	-0.107117	-0.107567
C	3.284067	-1.212082	0.005178
C	4.721862	-0.834692	-0.195207
C	4.608668	0.656432	-0.430434
C	5.559774	1.559697	-0.668713
O	3.283649	1.016449	-0.365402
H	0.548969	-0.812445	0.194159
H	0.696754	0.559466	-0.945763
H	0.860346	0.845159	0.796234
H	2.90729	-2.21189	0.209916
H	5.357226	-1.057532	0.680512
H	5.188006	-1.344601	-1.057144
H	6.604836	1.253305	-0.718482
H	5.303897	2.609171	-0.821304
