18

C	0.83471	-0.867868	-0.288898
C	2.352588	-0.81036	-0.237141
C	2.904947	-1.711434	0.85987
C	2.967044	-1.135337	-1.592757
O	2.612775	0.570418	0.094144
N	3.937076	0.84076	0.187218
C	4.17253	2.05285	0.483255
H	0.450274	-0.177413	-1.053711
H	0.406941	-0.579366	0.682387
H	0.497425	-1.885684	-0.532491
H	2.465584	-1.442762	1.832479
H	3.996673	-1.603272	0.930062
H	2.666861	-2.764911	0.649264
H	2.572736	-0.456512	-2.363749
H	2.731283	-2.16953	-1.884386
H	4.05937	-1.020286	-1.55338
H	5.221023	2.346448	0.576547
H	3.370678	2.787758	0.643885
