15

N	0.866508	1.629104	0.054333
N	2.227907	1.746555	0.265426
C	3.136308	1.021825	-0.441921
O	2.793	0.222943	-1.296058
C	4.564336	1.279215	-0.09378
C	5.503968	0.103518	-0.195306
C	5.560717	1.177249	-1.22189
H	0.602663	0.652976	0.197747
H	0.678089	1.810781	-0.932939
H	2.519702	2.416208	0.965414
H	4.757733	2.018302	0.690111
H	5.042959	-0.843074	-0.489112
H	6.305471	0.032645	0.544767
H	6.402955	1.874244	-1.214325
H	5.139124	0.951509	-2.205006
