15

N	1.078218	-0.477853	-0.32052
C	2.365242	0.123711	-0.093521
C	2.203069	1.457253	0.606593
O	1.192568	2.116704	0.521902
N	3.343028	1.912592	1.246883
C	3.310596	2.754157	2.401517
C	3.894077	1.378941	2.464109
H	1.10722	-1.123011	-1.104026
H	0.412462	0.260018	-0.548694
H	2.957423	0.360254	-1.00642
H	3.016745	-0.527803	0.515969
H	2.330647	2.919716	2.863155
H	3.972702	3.626194	2.384506
H	4.98048	1.239072	2.489477
H	3.315942	0.611415	2.99253
