16

C	1.315523	0.288926	0.086939
C	2.799225	0.011347	-0.13446
C	3.028107	-0.773849	-1.351521
C	3.215133	-1.42728	-2.353208
N	3.523419	1.271282	-0.214344
C	3.953859	1.848501	1.036058
C	4.930559	1.246417	0.09289
H	1.17859	0.857495	1.019115
H	0.747574	-0.648834	0.158968
H	0.919167	0.88481	-0.747177
H	3.170715	-0.603832	0.719213
H	3.381181	-2.000834	-3.246301
H	3.749793	1.291117	1.960818
H	3.853527	2.935241	1.129376
H	5.572802	1.875663	-0.532195
H	5.377256	0.286879	0.385348
