17

C	0.980222	-0.085143	0.016193
C	2.499498	-0.030547	0.021002
C	3.056354	1.385913	-0.014907
C	4.577633	1.45174	-0.011753
C	5.122797	2.870562	-0.046469
H	0.608459	-1.120561	0.042706
H	0.565897	0.39366	-0.886099
H	0.558579	0.441901	0.887602
H	2.894772	-0.59639	-0.841817
H	2.887719	-0.548605	0.916466
H	2.664373	1.954699	0.849163
H	2.669808	1.907955	-0.9104
H	4.965845	0.883009	-0.876041
H	4.960396	0.927811	0.882829
H	4.78317	3.406503	-0.947986
H	6.223549	2.884841	-0.045254
H	4.780709	3.451522	0.825735
