17

C	2.268096	-0.726369	-1.379646
N	1.867066	0.326968	-0.478174
C	2.936814	1.124596	0.052535
C	3.679084	0.460523	1.188101
C	3.711558	2.043232	-0.869529
C	2.72238	2.603794	0.118226
H	2.869616	-0.384019	-2.249426
H	1.376963	-1.244777	-1.76414
H	2.869294	-1.480978	-0.847128
H	1.158224	0.915925	-0.902783
H	4.480687	1.106561	1.575574
H	4.14432	-0.482681	0.861238
H	2.981676	0.228862	2.007375
H	3.426455	2.048734	-1.926286
H	4.778844	2.204899	-0.689813
H	3.100912	3.140391	0.993196
H	1.780749	3.005941	-0.269999
