13

C	0.387351	-0.967744	-0.128076
C	1.803501	-0.536377	0.150181
O	1.875482	0.867831	-0.092189
N	3.106272	1.337498	0.125997
C	3.192012	2.598441	-0.081753
C	4.448968	3.24823	0.110255
N	5.446636	3.821166	0.252414
H	0.282621	-2.047942	0.049279
H	0.111851	-0.758821	-1.172216
H	-0.319375	-0.439142	0.527542
H	2.525598	-1.049911	-0.506114
H	2.093987	-0.733443	1.19562
H	2.328045	3.197413	-0.403351
