11

O	1.032845	0.053083	0.225173
C	2.230254	-0.003778	0.086886
N	2.971912	1.197668	-0.033948
C	4.308539	1.255769	-0.195132
C	5.023708	0.095062	-0.24774
C	4.264415	-1.105032	-0.122607
N	2.975352	-1.166953	0.032258
H	2.415228	2.045343	0.008731
H	4.755071	2.250177	-0.277238
H	6.104536	0.087258	-0.379459
H	4.795831	-2.067446	-0.157783
