18

C	1.360625	-0.730744	0.211155
N	2.723635	-0.268323	0.259454
C	2.914656	1.06744	-0.261883
C	4.34489	1.491363	-0.16241
C	5.064093	1.850581	-1.235463
O	6.34407	2.252073	-1.283737
C	7.051534	2.312583	-0.076303
H	1.29525	-1.76153	0.591473
H	0.897744	-0.711873	-0.801735
H	0.728187	-0.104269	0.862726
H	3.341036	-0.91172	-0.230292
H	2.282976	1.749598	0.338696
H	2.562542	1.186282	-1.31376
H	4.785064	1.470396	0.83865
H	4.624137	1.852053	-2.238865
H	8.063509	2.665635	-0.313088
H	7.116975	1.320582	0.405943
H	6.579006	3.013754	0.635548
