18

N	1.202853	-0.162255	0.07923
C	2.613684	-0.111307	-0.147948
C	3.105658	-0.419009	-1.532499
C	3.145837	0.991089	-1.017998
C	4.421059	1.702588	-0.693228
C	5.737874	0.989198	-0.580744
C	5.479585	1.906607	-1.739192
H	0.946804	0.414322	0.878443
H	0.90665	-1.112403	0.294195
H	3.296005	-0.419976	0.661505
H	2.342708	-0.65108	-2.279427
H	4.03851	-0.9791	-1.638361
H	2.362477	1.638936	-1.426835
H	4.285008	2.536462	0.006001
H	5.770245	-0.085981	-0.778103
H	6.432305	1.314656	0.198989
H	6.003126	2.865377	-1.779343
H	5.304763	1.445836	-2.716094
