15

C	1.024434	0.16969	-0.534039
O	2.409428	0.088276	-0.345132
C	3.101383	1.233512	-0.204646
C	4.439048	1.298579	0.004737
C	4.829719	2.735049	0.10633
C	3.543925	3.476248	-0.072728
C	2.541334	2.592607	-0.25338
H	0.652978	-0.860162	-0.616744
H	0.761167	0.710479	-1.461365
H	0.515767	0.657514	0.317268
H	5.113935	0.448285	0.086375
H	5.57135	3.031725	-0.6601
H	5.295494	2.980753	1.080279
H	3.453302	4.563384	-0.055287
H	1.490816	2.839711	-0.4106
