14

C	0.251679	0.551562	0.830909
C	1.142592	0.166414	-0.298004
N	2.254503	-0.422136	-0.095144
N	3.003608	-0.812846	-1.141327
C	4.397212	-0.998098	-0.833184
C	5.071191	-1.771945	-1.876706
N	5.611182	-2.361966	-2.71191
H	-0.724658	0.044557	0.757671
H	0.048983	1.635351	0.827445
H	0.718269	0.278863	1.787293
H	0.802983	0.395975	-1.327759
H	2.817744	-0.360914	-2.039304
H	4.459928	-1.551164	0.116939
H	4.960584	-0.052802	-0.68839
