13

C	0.980711	-0.03782	-0.004752
C	2.498483	0.023799	0.007016
C	3.043701	1.44307	0.037998
N	4.492706	1.447035	0.00356
H	0.61695	-1.075843	-0.022721
H	0.565963	0.473178	-0.888955
H	0.54937	0.448432	0.885577
H	2.918432	-0.486386	-0.876041
H	2.886547	-0.526831	0.884119
H	2.602241	1.972184	0.913209
H	2.67398	1.98379	-0.851782
H	4.863054	1.02285	0.852928
H	4.849372	2.399761	-0.012517
