17

C	1.16744	-0.073199	0.121235
C	2.641268	-0.096655	-0.179498
C	3.157171	-0.602812	-1.493521
C	3.246062	0.860107	-1.173416
C	4.546564	1.533013	-0.891905
C	5.800618	0.818916	-0.645148
O	5.564781	1.464474	-1.873957
H	0.922932	0.686267	0.881153
H	0.820485	-1.048961	0.497027
H	0.583473	0.15876	-0.783417
H	3.28127	-0.317129	0.683434
H	2.424829	-0.901135	-2.249453
H	4.075231	-1.195318	-1.510837
H	2.533779	1.503282	-1.703895
H	4.445609	2.527248	-0.431256
H	5.826371	-0.278493	-0.676209
H	6.561868	1.274855	0.002863
