19

C	0.794902	0.011131	-0.537258
C	2.22227	0.00209	-0.043799
C	3.231854	-0.76396	-0.856653
C	3.244739	0.73895	-0.867539
C	2.440058	0.010838	1.446045
C	1.562326	0.772798	2.396497
C	1.554655	-0.729882	2.406199
H	0.76678	0.000829	-1.637296
H	0.254261	0.911667	-0.204422
H	0.236809	-0.872131	-0.187356
H	2.884716	-1.287245	-1.752469
H	4.033308	-1.281504	-0.321258
H	4.055024	1.250397	-0.339569
H	2.906453	1.25539	-1.770681
H	3.504482	0.006918	1.709889
H	0.680957	1.2813	1.996715
H	2.037276	1.299857	3.228549
H	2.024364	-1.251061	3.244908
H	0.668246	-1.234671	2.012886
