17

C	1.423478	-0.408362	0.854739
C	2.381559	-0.005879	0.02147
C	3.049549	1.328368	0.07164
O	4.435676	1.154148	-0.012959
C	5.151125	2.356811	-0.045915
C	6.613716	2.057552	-0.066175
C	7.491991	2.61301	-0.899501
H	0.945583	-1.385505	0.747907
H	1.0762	0.226257	1.677271
H	2.723617	-0.662065	-0.787951
H	2.766193	1.872278	0.99791
H	2.68994	1.949444	-0.779944
H	4.913865	2.967037	0.8548
H	4.866654	2.97226	-0.92569
H	6.946048	1.334234	0.68824
H	7.178404	3.327073	-1.668998
H	8.558443	2.378229	-0.846314
