15

N	1.692021	0.389136	-2.209185
C	2.657206	0.8893	-1.813889
C	3.885306	1.532349	-1.343193
N	5.038981	0.685361	-1.532672
C	6.242272	1.225158	-0.987414
C	6.51804	0.958101	0.46467
C	7.314308	0.257032	-0.59638
H	3.767913	1.735545	-0.265008
H	3.951959	2.527043	-1.83627
H	5.154012	0.437852	-2.512574
H	6.577889	2.203545	-1.37158
H	5.770757	0.366094	1.000186
H	7.000202	1.741987	1.054131
H	8.355368	0.550536	-0.753192
H	7.099286	-0.80078	-0.768279
