19

N	2.028643	-0.256552	-1.45201
C	2.389029	0.062092	-0.083285
C	3.097618	1.401864	-0.003059
C	2.286858	2.60347	-0.486356
C	3.052074	3.768495	0.122156
N	3.397265	3.272948	1.444079
C	3.504366	1.81816	1.418682
H	1.504039	-1.12724	-1.491907
H	2.868519	-0.404866	-2.009396
H	3.022504	-0.705558	0.415522
H	1.461368	0.124479	0.513749
H	4.013793	1.3458	-0.622648
H	1.269089	2.556402	-0.062982
H	2.19196	2.649261	-1.579666
H	3.937018	4.002546	-0.510207
H	2.447164	4.689772	0.182107
H	4.199472	3.733821	1.855348
H	4.518243	1.454394	1.667889
H	2.819877	1.360334	2.160943
