14

C	2.616706	-1.041347	-0.91363
N	2.501549	-0.015759	0.101875
C	3.107469	1.232437	-0.244101
C	4.632005	1.238134	-0.192057
O	5.260515	0.316878	0.274374
C	5.281401	2.440108	-0.702232
C	5.780111	3.45377	-1.143642
H	2.141267	-1.966754	-0.556144
H	3.655941	-1.286661	-1.208713
H	2.071389	-0.728434	-1.819344
H	2.905179	-0.350115	0.974257
H	2.773372	2.039634	0.436873
H	2.784595	1.557109	-1.24911
H	6.234671	4.348271	-1.531327
