15

N	0.870449	0.245819	-0.148946
C	2.287662	0.120566	0.06915
C	2.570268	0.068709	1.556108
O	1.783871	-0.906128	2.166201
C	3.071593	-0.760593	-0.84766
C	3.304733	0.729372	-0.854621
H	0.585322	-0.108847	-1.056671
H	0.572993	1.218098	-0.086995
H	2.385012	1.080126	1.985004
H	3.634221	-0.15919	1.735232
H	0.942107	-0.853988	1.683592
H	2.555633	-1.199748	-1.70764
H	3.832821	-1.410816	-0.407726
H	4.237783	1.112101	-0.429162
H	2.931942	1.297709	-1.712116
