17

C	0.789216	0.781448	0.372875
O	2.156566	0.581174	0.205629
C	2.864367	1.753978	-0.06578
C	4.323243	1.402737	-0.26548
C	5.208399	2.621047	-0.533608
C	4.877217	3.338554	-1.760645
C	4.591667	3.92285	-2.782762
H	0.324586	-0.1935	0.577559
H	0.315423	1.211877	-0.532858
H	0.566592	1.460286	1.221627
H	2.758109	2.481356	0.769707
H	2.466933	2.257504	-0.971958
H	4.402075	0.686473	-1.098925
H	4.68599	0.884201	0.636436
H	6.262828	2.302265	-0.585677
H	5.147237	3.323868	0.316582
H	4.341032	4.439091	-3.690752
