13

C	0.933252	0.024301	-0.006328
C	2.414343	0.062128	-0.001711
C	3.28038	1.088283	0.002944
C	4.68229	0.572474	0.005271
C	4.685651	-0.769247	0.001967
C	3.251019	-1.205359	-0.001304
O	2.820082	-2.331186	-0.005524
H	0.498805	1.033083	-0.002911
H	0.55473	-0.526389	0.870394
H	0.559975	-0.517845	-0.890631
H	3.026026	2.149977	0.004518
H	5.559526	1.222306	0.008709
H	5.531094	-1.455035	0.002128
