21

C	0.992182	-0.017711	0.111676
C	2.518277	-0.057294	0.069669
C	3.04964	-0.680008	1.363718
C	2.982826	-0.885168	-1.142109
N	2.596201	-2.28467	-1.044378
C	3.049414	1.378223	-0.076895
N	4.498574	1.460234	-0.041161
H	0.586495	0.529662	-0.755536
H	0.626518	0.47966	1.024677
H	0.591668	-1.041434	0.082815
H	2.79168	-0.056607	2.23611
H	4.145496	-0.795726	1.333406
H	2.606538	-1.673938	1.52855
H	4.070707	-0.717792	-1.264709
H	2.498673	-0.461673	-2.039695
H	3.246846	-2.791558	-0.447582
H	2.653442	-2.729724	-1.95685
H	2.546504	2.005513	0.691425
H	2.709325	1.767986	-1.052319
H	4.83716	1.382603	0.915227
H	4.811897	2.366653	-0.378381
