14

N	0.896243	0.0209	0.211341
C	2.324316	-0.017909	-0.004373
C	3.077148	1.00327	0.884577
O	3.610318	-0.025294	1.708583
C	3.159814	-1.042406	0.825269
C	2.621313	0.012068	-1.432381
C	2.885627	0.013578	-2.613904
H	0.689592	-0.080353	1.203785
H	0.439263	-0.747488	-0.276103
H	2.410788	1.69652	1.426287
H	3.858546	1.579331	0.359333
H	3.986477	-1.521895	0.271299
H	2.556364	-1.818455	1.329611
H	3.12008	0.020095	-3.662554
