15

C	1.785683	-0.244057	0.267917
C	0.907037	-1.493986	0.507454
C	-0.16962	-0.912935	-0.4508
C	-1.458342	-0.435715	0.152077
N	-1.436115	0.801082	0.485034
N	-0.200989	1.325568	0.246418
C	0.639247	0.412037	-0.526473
H	2.674027	-0.448397	-0.348559
H	2.09326	0.316453	1.162284
H	1.345253	-2.45204	0.192446
H	0.550487	-1.602032	1.542055
H	-0.304361	-1.486459	-1.380655
H	-2.356818	-1.035	0.315821
H	-0.243251	2.299565	-0.028687
H	0.898763	0.823695	-1.516922
