14

C	0.894322	0.070905	0.138703
C	2.408406	0.008589	0.011473
O	2.802801	-0.677703	-1.146349
C	3.027821	1.414037	0.082624
C	4.47959	1.426177	-0.024576
C	5.686983	1.43375	-0.111827
H	0.58157	0.52055	1.093622
H	0.471309	-0.941354	0.074241
H	0.459586	0.675812	-0.675331
H	2.816561	-0.582733	0.848181
H	2.507756	-0.171497	-1.912048
H	2.723686	1.897733	1.027078
H	2.596399	2.034823	-0.725617
H	6.758271	1.434441	-0.191876
