14

C	1.375368	-0.265864	0.553489
O	2.718505	0.072399	0.329336
C	3.020397	1.360389	0.096196
C	2.159511	2.382676	0.000362
C	4.510709	1.517661	-0.063271
C	5.250994	1.144713	1.140096
N	5.84215	0.866657	2.094624
H	1.349391	-1.344617	0.751095
H	0.750428	-0.042784	-0.329787
H	0.966519	0.273702	1.425516
H	1.081488	2.256672	0.10217
H	2.536913	3.388107	-0.184261
H	4.759518	2.554944	-0.327191
H	4.85445	0.871203	-0.888516
