14

C	0.955314	0.262796	-0.501617
C	2.265414	0.027477	0.162282
N	3.204525	0.878779	0.086822
N	4.366431	0.472603	0.782271
C	5.569553	0.969749	0.120422
C	5.068774	1.624541	1.340065
H	0.737423	-0.540022	-1.22504
H	0.958845	1.229303	-1.023074
H	0.138534	0.252792	0.238715
H	2.419886	-0.90697	0.73008
H	5.414061	1.496661	-0.826517
H	6.425368	0.288763	0.151734
H	5.538296	1.449199	2.312586
H	4.575517	2.594119	1.216959
