15

C	0.940466	-0.045593	-0.010448
C	2.392472	-0.002931	-0.019191
C	3.606835	0.054446	-0.026666
C	5.03672	0.04238	-0.030279
C	5.751376	-1.283488	-0.008683
N	5.652865	1.17634	-0.065559
N	6.988392	1.182917	-0.116359
H	0.516039	0.966929	-0.096241
H	0.556608	-0.490364	0.922113
H	0.550558	-0.643683	-0.85003
H	5.040273	-2.117835	-0.010052
H	6.384857	-1.384313	0.892037
H	6.410918	-1.383347	-0.888466
H	7.3786	2.080881	0.140232
H	7.500322	0.388611	0.267882
