19

C	2.376425	-0.409053	-1.066548
N	2.423154	0.308276	0.182822
C	3.235808	1.501818	0.198331
C	4.730035	1.259048	0.025905
C	5.723905	2.330276	0.513311
C	6.474262	1.17254	1.192899
N	5.287975	0.327514	1.018797
H	1.709945	-1.28041	-0.971743
H	3.351828	-0.780568	-1.451775
H	1.949508	0.237751	-1.851929
H	2.72894	-0.30075	0.9394
H	3.084125	2.004785	1.169135
H	2.876749	2.197199	-0.582585
H	4.950889	0.961332	-1.019635
H	5.265072	3.025152	1.23308
H	6.265945	2.90663	-0.248375
H	7.357424	0.849863	0.608162
H	6.79311	1.316545	2.239289
H	5.460263	-0.621918	0.697959
