17

C	1.324423	-0.01395	1.108983
C	2.758504	-0.009887	0.603302
C	3.240691	1.355461	0.118687
N	3.238906	2.410015	1.127398
C	4.656545	1.306164	-0.457692
O	5.079242	2.581677	-0.818691
H	1.018804	-1.012355	1.45558
H	0.621189	0.293096	0.31782
H	1.196371	0.680171	1.954948
H	2.86483	-0.734884	-0.222411
H	3.438939	-0.360124	1.40196
H	2.577718	1.702347	-0.695109
H	3.630206	2.070193	2.005838
H	2.303447	2.753131	1.325329
H	4.683039	0.651164	-1.345273
H	5.328571	0.841169	0.301086
H	4.678124	3.148932	-0.136315
