16

C	0.780731	-1.420338	-0.062869
C	2.29161	-1.369986	-0.023889
O	2.966977	-2.378487	0.034398
N	2.832153	-0.117379	-0.029872
C	4.256858	0.113366	0.007958
C	4.737881	0.874189	-1.18895
C	5.401519	2.029468	-1.139624
H	0.308303	-0.469853	-0.348996
H	0.412984	-1.712844	0.932261
H	0.477904	-2.207757	-0.765622
H	2.220935	0.684323	-0.107571
H	4.713571	-0.889226	0.038836
H	4.546785	0.63779	0.935737
H	4.505477	0.418986	-2.159939
H	5.64312	2.507364	-0.184066
H	5.739781	2.535186	-2.047671
