13

C	-1.312352	0.640529	0.194846
O	-1.397632	-0.741817	4e-06
C	-0.354025	-1.495849	0.41178
C	0.93213	-1.103104	0.481743
C	1.499076	0.164138	0.047928
C	0.856176	1.206619	-0.512426
O	-0.477467	1.317286	-0.699961
H	-2.321408	1.033592	0.023202
H	-0.977723	0.842384	1.228237
H	-0.667711	-2.500773	0.705712
H	1.632202	-1.845531	0.871533
H	2.581641	0.275609	0.145306
H	1.391933	2.090598	-0.868263
