18

C	2.273464	-0.484609	-1.374129
C	2.536605	0.039552	0.027533
O	3.236387	-0.898012	0.816431
C	3.271239	1.368794	0.014329
C	2.602325	2.619594	-0.585435
C	3.170112	3.362057	0.63644
N	3.333608	2.067628	1.295165
H	1.646274	0.208395	-1.955887
H	1.765749	-1.458704	-1.32554
H	3.220889	-0.619233	-1.924367
H	1.581064	0.204876	0.553325
H	4.044499	-1.128245	0.343597
H	4.270877	1.202764	-0.452629
H	1.5043	2.54635	-0.557426
H	2.923215	2.944841	-1.583825
H	4.117585	3.884273	0.392384
H	2.508894	4.075746	1.157565
H	4.157124	1.919903	1.871567
