15

N	1.07886	2.780789	2.142693
C	2.16795	2.536898	1.538363
N	2.926342	3.547319	0.991133
O	3.691116	3.155418	-0.097182
C	5.015518	3.562304	0.061083
C	5.768758	3.725367	-1.209326
C	5.397446	4.936101	-0.392883
H	0.708223	1.926733	2.557872
H	2.654981	1.552321	1.413571
H	2.412531	4.409013	0.805449
H	5.514247	3.136622	0.940498
H	5.202965	3.550906	-2.127869
H	6.810522	3.397868	-1.240759
H	6.177552	5.469129	0.156861
H	4.594088	5.568484	-0.780923
