11

O	0.924656	0.01488	-1.1e-05
C	2.128119	0.06393	5.2e-05
C	2.898903	1.289649	-0.000584
C	3.585208	2.291421	-0.001108
C	4.412453	3.49317	0.000174
C	3.657763	4.745104	0.000872
C	3.039814	5.784106	-0.000539
H	2.752631	-0.86358	0.000753
H	5.08109	3.463325	-0.879711
H	5.080436	3.461635	0.880485
H	2.487817	6.706179	-0.000371
