18

C	2.833758	-1.288568	-0.071041
C	2.46138	-0.109344	0.813833
C	3.053524	1.227319	0.355257
C	2.557069	2.385883	1.21333
C	4.574719	1.151156	0.45554
N	5.251892	1.220582	-0.719899
O	5.135912	1.022052	1.525253
H	2.379509	-2.221214	0.295523
H	3.923894	-1.443436	-0.101141
H	2.489568	-1.139373	-1.107933
H	2.80763	-0.287799	1.845692
H	1.363938	-0.005211	0.860877
H	2.759478	1.399347	-0.696728
H	2.904985	2.253539	2.248429
H	1.457164	2.432239	1.212676
H	2.940961	3.351681	0.850585
H	4.784	1.337264	-1.605739
H	6.26247	1.169093	-0.696845
