15

C	0.863365	-0.0543	-0.00068
C	2.209468	-0.015872	-0.012567
C	2.966928	1.301785	-0.040548
C	4.460697	1.190571	-0.013988
C	5.094668	0.007709	0.006395
C	4.342857	-1.240238	0.007853
C	2.992611	-1.245684	-0.000954
H	0.26282	0.859598	-0.005803
H	0.327428	-1.006834	0.014481
H	2.642003	1.934508	0.805989
H	2.673137	1.876563	-0.938991
H	5.03104	2.12439	-0.016101
H	6.187047	-0.034505	0.022353
H	4.892728	-2.184916	0.019563
H	2.444122	-2.192015	0.005226
