15

C	2.400197	-0.972664	0.821226
C	2.084134	0.208569	0.279351
N	2.954909	1.292272	0.118306
C	2.45362	2.594142	0.12872
C	1.287247	2.983545	0.656891
C	4.323684	1.072969	-0.06556
N	5.279111	1.897024	0.05459
H	1.6649	-1.77871	0.820053
H	3.37527	-1.174016	1.269837
H	1.079807	0.39821	-0.114021
H	3.097181	3.312114	-0.389787
H	0.636758	2.305392	1.213626
H	0.961296	4.017105	0.535249
H	4.53571	0.041261	-0.38254
H	4.963148	2.804648	0.406959
