11

N	0.967985	0.021367	0.00555
N	2.273655	-0.045165	0.003399
C	2.969926	1.042497	0.001493
C	4.382518	1.009769	0.000977
C	5.60543	1.054376	0.000428
C	6.972379	1.099231	-0.000226
C	8.190262	1.141149	-0.000817
H	0.460609	-0.850129	-0.004351
H	0.460767	0.904766	-0.00545
H	2.486469	2.03757	0.000391
H	9.263931	1.177589	-0.001344
