16

C	0.570138	1.14613	0.625434
C	-0.894817	0.758822	0.429054
C	-0.91246	-0.012588	-0.864651
C	0.54345	-0.018453	-1.32833
N	1.227245	-3.7e-05	-0.024568
C	0.570975	-1.127947	0.657305
C	-0.894282	-0.747234	0.450208
H	0.847085	2.086916	0.125041
H	0.86715	1.214319	1.683267
H	-1.737362	1.358549	0.775659
H	-1.76921	-0.022542	-1.539915
H	0.818721	-0.919715	-1.897899
H	0.817867	0.867051	-1.922438
H	0.868234	-1.166164	1.716556
H	0.848257	-2.082183	0.183339
H	-1.736412	-1.337642	0.813426
