18

C	2.032673	-0.699823	-0.33823
N	1.893169	0.678665	0.070534
C	3.128477	1.372286	0.212303
C	3.734353	1.989245	-1.012128
C	3.126171	2.873292	0.036432
C	3.926948	3.739434	0.931918
C	5.226971	4.019151	0.813815
H	1.041044	-1.170356	-0.421233
H	2.652305	-1.323642	0.341459
H	2.501601	-0.742534	-1.334345
H	1.355246	0.745062	0.931209
H	3.856968	0.991364	0.950694
H	3.178293	1.876545	-1.945779
H	4.821957	1.964521	-1.116902
H	2.131374	3.260707	-0.209818
H	3.373123	4.169486	1.776449
H	5.827275	3.635405	-0.016535
H	5.739251	4.650474	1.544529
