18

C	1.496114	1.403235	1.860343
O	2.809644	1.468541	1.406508
C	2.928452	1.359151	0.015045
C	4.382278	1.531724	-0.368996
C	4.906728	2.889408	0.015807
C	5.912887	3.610745	-0.791756
N	4.509089	3.993157	-0.847321
H	1.507193	1.504049	2.955425
H	1.012352	0.438126	1.603767
H	0.867288	2.213843	1.438901
H	2.323966	2.140261	-0.492548
H	2.548341	0.374854	-0.332437
H	4.478957	1.399	-1.458295
H	4.983561	0.746989	0.119449
H	4.913054	3.072231	1.097613
H	6.309469	3.149949	-1.703996
H	6.626317	4.260764	-0.271887
H	4.34325	4.837912	-0.303432
