21

C	1.178921	0.291016	0.125676
C	2.668086	-0.0435	-0.005549
C	3.088861	-0.920222	1.175525
C	2.91327	-0.810283	-1.309181
C	3.443049	1.271544	-0.077772
C	3.862988	2.062098	1.125112
C	4.898777	1.404572	0.254649
H	0.832122	0.898788	-0.725518
H	0.986228	0.86401	1.04657
H	0.566408	-0.624202	0.15758
H	2.906242	-0.426315	2.142003
H	4.153026	-1.196448	1.125468
H	2.508879	-1.855748	1.172828
H	2.608479	-0.213103	-2.183655
H	2.342688	-1.752147	-1.330364
H	3.980766	-1.054449	-1.425903
H	3.116467	1.881969	-0.929376
H	3.691602	1.633389	2.11593
H	3.763144	3.150603	1.09121
H	5.521338	2.033531	-0.387615
H	5.42213	0.53622	0.663593
