16

C	2.434791	-0.499056	-1.494558
C	2.454633	0.115024	-0.102787
C	3.494502	1.217713	0.050182
N	3.251108	2.490635	-0.654015
C	2.944648	3.226416	0.57954
C	3.391089	1.995531	1.363996
O	3.566161	1.733444	2.514444
H	1.678787	-1.295271	-1.569127
H	3.413114	-0.936631	-1.748055
H	2.200145	0.249282	-2.268502
H	2.671015	-0.657928	0.653144
H	1.457972	0.521098	0.14822
H	4.503803	0.803351	-0.141032
H	2.504621	2.464324	-1.342866
H	3.534167	4.144867	0.745473
H	1.879213	3.463758	0.765553
