16

C	3.105116	-0.918658	-2.413367
C	3.317299	-0.473231	-1.306864
C	3.589084	0.095613	0.006837
C	4.555576	1.277178	-0.038567
C	3.941362	2.563139	-0.627378
N	3.635185	2.996402	0.737509
C	4.61736	2.062894	1.286103
H	2.906877	-1.326004	-3.387219
H	3.996246	-0.689391	0.667885
H	2.641934	0.430256	0.464792
H	5.519019	0.964051	-0.465526
H	3.069911	2.43869	-1.294069
H	4.699091	3.175874	-1.154435
H	3.759022	3.98197	0.952449
H	5.624487	2.489162	1.463736
H	4.30278	1.530384	2.201865
