11

C	0.99483	-0.016468	-0.045754
C	2.493738	-0.099142	-0.002162
C	3.285453	-0.713489	-1.092265
N	3.227973	0.732773	-0.943576
H	0.632919	0.862629	0.51057
H	0.534813	-0.913792	0.397617
H	0.647273	0.078055	-1.084816
H	2.918791	-0.204817	1.006381
H	2.773274	-1.114629	-1.974932
H	4.207401	-1.245831	-0.829587
H	4.086516	1.087532	-0.526587
