19

C	1.724837	-0.545066	-1.153035
N	2.17782	0.172774	0.011299
C	3.395188	0.910968	-0.192217
C	3.188449	2.282816	-0.8718
N	3.259823	2.92325	0.433486
C	3.913825	4.184547	0.582967
C	3.825573	1.728258	1.039175
H	0.80617	-1.104426	-0.920217
H	2.467037	-1.260776	-1.573412
H	1.473232	0.164781	-1.957969
H	2.291296	-0.460931	0.79859
H	4.205311	0.302317	-0.648953
H	2.238662	2.427418	-1.416034
H	4.032626	2.545836	-1.544824
H	3.912049	4.490947	1.64147
H	3.375428	4.960199	0.01573
H	4.973156	4.181418	0.232405
H	4.930586	1.762512	1.151575
H	3.381482	1.432789	2.006901
