12

N	1.298269	-0.283857	0.043477
C	2.655339	-0.226596	0.048481
O	3.363173	-1.21276	0.09405
C	3.213138	1.159401	-0.006897
C	4.535924	1.364914	-0.006388
C	5.099674	2.734029	-0.059711
O	4.43031	3.737057	-0.104485
H	0.719011	0.541648	0.00492
H	0.857327	-1.193469	0.081372
H	2.546463	2.028904	-0.047871
H	5.209947	0.502719	0.034109
H	6.216967	2.79103	-0.056268
