15

C	1.043416	0.035311	0.107994
C	2.54927	0.012925	0.01927
O	3.1305	1.034557	0.791594
C	4.434093	0.622293	1.147668
C	4.310083	-0.864304	1.45683
C	3.176565	-1.281564	0.538157
O	2.822351	-2.394654	0.260842
H	0.634466	-0.831885	-0.429674
H	0.638563	0.957238	-0.331823
H	0.727855	-0.018031	1.16019
H	2.867833	0.098098	-1.045604
H	5.140579	0.78713	0.308141
H	4.766569	1.234714	1.997046
H	5.210127	-1.471986	1.289478
H	3.973739	-1.033791	2.494019
