16

C	0.70082	1.200748	-0.212745
C	-0.751984	1.201638	0.254528
N	-1.405836	0.00196	-0.226948
C	-0.752907	-1.204195	0.239379
C	0.699852	-1.198584	-0.227986
N	1.420832	-0.001662	0.165762
H	0.711475	1.274142	-1.314743
H	1.233183	2.082795	0.177979
H	-1.277345	2.088123	-0.137598
H	-0.76064	1.28046	1.368844
H	-2.390835	0.000757	0.020262
H	-0.761517	-1.296899	1.352599
H	-1.27898	-2.08527	-0.163772
H	1.231569	-2.085973	0.15144
H	0.710335	-1.257944	-1.330838
H	1.567897	-0.008167	1.174266
