18

C	3.758319	-0.731864	0.038139
O	3.298422	0.165699	1.00194
C	3.339814	1.521096	0.629801
C	2.565793	2.300367	1.671031
C	4.760975	2.031168	0.514004
C	5.491398	2.087079	-0.772611
N	4.92146	3.290125	-0.189845
H	3.549123	-1.747728	0.403952
H	4.846023	-0.64788	-0.146259
H	3.239273	-0.599437	-0.932733
H	2.857132	1.659271	-0.362357
H	3.028319	2.170647	2.662056
H	1.529621	1.938301	1.728315
H	2.563046	3.368843	1.413285
H	5.358885	1.856444	1.419828
H	5.004126	1.735982	-1.689722
H	6.577954	1.941401	-0.75443
H	5.639487	3.867086	0.243707
