19

C	3.043808	-0.910533	-1.037026
C	2.53214	-0.02563	0.087799
C	3.15817	1.372874	0.118356
C	2.554172	2.238018	1.219889
C	4.67286	1.27087	0.274984
N	5.390564	1.636539	-0.830948
N	5.282562	0.831819	1.309046
H	2.544484	-1.890605	-1.031102
H	4.126952	-1.08395	-0.947009
H	2.862307	-0.44965	-2.02194
H	2.720169	-0.513886	1.061414
H	1.436737	0.087208	0.012249
H	2.943543	1.853758	-0.853902
H	2.742422	1.799353	2.212648
H	1.463759	2.325047	1.094975
H	2.982701	3.251106	1.218531
H	4.96892	2.22944	-1.5295
H	6.395165	1.692927	-0.71762
H	4.610746	0.547384	2.022517
