15

C	2.673901	-0.749167	-1.160818
N	2.349242	0.035319	0.009789
C	2.885641	1.37693	0.020317
C	2.415722	2.141826	1.231419
C	1.741394	3.287438	1.178925
C	4.371889	1.40262	-0.034679
N	5.528177	1.345453	-0.069506
H	2.217182	-1.744686	-1.070393
H	3.760585	-0.880689	-1.340376
H	2.242542	-0.27332	-2.056282
H	2.616614	-0.452425	0.862078
H	2.530559	1.89759	-0.886865
H	2.674315	1.695655	2.199503
H	1.480695	3.756148	0.224844
H	1.423321	3.800791	2.089634
