17

C	-0.992997	-1.212329	0.52086
C	0.106607	-2.036786	-0.111233
C	-0.02096	-3.521822	0.163819
O	0.02728	-1.748515	-1.512137
N	1.100897	-2.268018	-2.201798
C	0.774925	-3.17426	-3.201662
N	-0.312601	-3.796281	-3.379227
H	-0.86607	-0.146459	0.282109
H	-0.984923	-1.333898	1.613839
H	-1.975232	-1.535211	0.142789
H	1.09167	-1.682999	0.250315
H	-1.009759	-3.893213	-0.147008
H	0.100288	-3.723798	1.238845
H	0.750721	-4.086789	-0.377728
H	1.733962	-1.521501	-2.485585
H	1.643402	-3.368598	-3.854449
H	-1.00452	-3.465374	-2.698158
