16

C	0.906473	0.122303	0.2533
C	2.394565	-0.056249	0.040369
C	3.332624	1.032622	0.623129
C	3.997106	-0.063817	1.4851
N	3.049223	-1.012897	0.931826
C	3.063474	-2.360237	0.978368
O	3.818785	-3.018589	1.658625
H	0.350764	-0.785682	-0.027867
H	0.526717	0.952582	-0.362324
H	0.690895	0.342349	1.310094
H	2.601319	-0.273973	-1.024234
H	2.803857	1.806055	1.197804
H	3.992337	1.518605	-0.107625
H	5.0447	-0.300623	1.23387
H	3.922177	0.060624	2.577845
H	2.283704	-2.811423	0.312711
