18

C	3.550214	-1.001341	-0.290966
C	2.921218	0.023152	0.638923
C	3.211957	1.480578	0.25272
C	2.427626	2.455809	1.129806
C	4.677375	1.771715	0.338091
N	5.341402	2.102379	-0.694406
O	6.664132	2.330863	-0.41697
H	3.308908	-2.02823	0.023641
H	4.647048	-0.905548	-0.317437
H	3.188892	-0.87394	-1.32404
H	3.264929	-0.144566	1.676415
H	1.826454	-0.114551	0.662146
H	2.921684	1.629992	-0.801742
H	2.716895	2.356639	2.189536
H	1.345727	2.260339	1.060252
H	2.607241	3.498804	0.827873
H	5.180774	1.695769	1.318335
H	7.030954	2.571543	-1.273726
