16

N	0.969225	0.012684	0.042892
C	2.410349	0.049496	0.028277
C	3.108061	1.069114	0.942975
C	4.176079	0.001539	1.247262
C	3.162444	-1.064826	0.800775
N	3.663827	-2.258942	0.181607
H	0.633358	-0.765959	-0.522834
H	0.587734	0.853234	-0.389102
H	2.863103	0.113833	-0.988628
H	2.474957	1.272017	1.820297
H	3.433457	2.024318	0.504832
H	5.021046	0.057981	0.541272
H	4.581184	-0.067788	2.2671
H	2.528778	-1.34721	1.659557
H	4.147715	-2.039629	-0.687403
H	2.912012	-2.905434	-0.047486
