18

C	1.807177	0.147075	-0.775455
C	1.882098	-0.118447	0.70116
C	0.549496	0.009775	0.031089
C	-0.362747	1.202457	0.295509
C	-1.702528	0.719752	-0.24798
N	-1.690803	-0.675033	0.144417
C	-0.373881	-1.194859	-0.178148
H	2.082292	1.14219	-1.138266
H	2.068703	-0.667337	-1.458741
H	2.199362	-1.112039	1.032357
H	2.203065	0.696138	1.357798
H	-0.449436	1.378079	1.379654
H	-0.007054	2.128792	-0.178467
H	-2.562955	1.250435	0.189875
H	-1.737697	0.876083	-1.350361
H	-2.444496	-1.21783	-0.265463
H	-0.284191	-1.548595	-1.228457
H	-0.113223	-2.043704	0.47634
