10

N	0.966646	0.168529	-0.0009
C	2.124964	0.129231	-0.000476
C	3.54736	0.021543	0.000472
N	4.324049	1.052926	-0.007015
N	5.654415	0.613542	-0.003699
C	5.675374	-0.670706	0.00572
C	4.311148	-1.260957	0.009937
H	6.618257	-1.223308	0.009859
H	4.103047	-1.891805	-0.872305
H	4.102969	-1.878814	0.901317
