13

N	1.061417	-0.357237	-0.228289
C	2.37901	-0.106035	-0.060062
C	2.980438	1.111676	0.064042
C	2.24901	2.429117	0.117839
O	2.670251	3.252638	1.166731
C	4.400248	1.1488	0.173915
N	5.558467	1.185075	0.264272
H	0.715596	-1.300698	-0.144661
H	0.378302	0.38594	-0.194043
H	3.010429	-0.999671	-0.056764
H	1.154724	2.238633	0.161085
H	2.422586	3.003695	-0.808136
H	2.734951	2.714837	1.963862
