16

C	1.006634	0.018925	0.069761
C	2.518708	0.03576	0.055888
N	3.128068	1.112404	0.822274
C	4.463798	0.638102	1.17745
C	4.333115	-0.864951	1.444465
C	3.145443	-1.262774	0.581854
O	2.751873	-2.375905	0.355092
H	0.643249	-0.865353	-0.472244
H	0.59459	0.923902	-0.398528
H	0.626269	-0.04342	1.102673
H	2.867215	0.113835	-0.995946
H	2.583397	1.257523	1.671849
H	5.142797	0.812932	0.32397
H	4.866074	1.207671	2.02711
H	5.21403	-1.483022	1.216748
H	4.057139	-1.06712	2.494675
