13

N	2.697531	-0.569516	-1.309101
C	2.381733	0.056479	-0.040482
C	2.826666	1.475523	-0.020748
N	2.170376	2.532653	0.328654
C	3.071006	3.56734	0.18912
C	4.253382	3.066354	-0.251781
O	4.102654	1.724673	-0.382522
H	2.404923	-1.543245	-1.30219
H	3.704863	-0.566344	-1.458059
H	2.819425	-0.446696	0.850936
H	1.293108	0.075255	0.11197
H	2.808705	4.600359	0.409952
H	5.221157	3.486927	-0.508339
