11

C	3.457221	-1.350035	-1.787859
C	2.865857	-0.736668	-0.758407
O	3.395836	0.181068	0.076163
C	4.73058	0.534457	-0.143447
C	5.137773	1.522578	0.853663
N	5.488421	2.304403	1.629239
H	2.881719	-2.073433	-2.365851
H	4.489149	-1.171338	-2.0937
H	1.827822	-0.935572	-0.478738
H	4.873923	0.968561	-1.152033
H	5.39898	-0.345112	-0.065481
