14

C	1.055423	-0.082828	0.484764
C	2.310499	-0.646047	-0.101239
C	2.544372	-1.952614	-0.285234
C	3.298648	0.379536	-0.545199
O	2.990112	1.494469	-0.952363
N	4.60825	0.028713	-0.497009
O	5.506094	1.016541	-0.798998
H	1.269118	0.476831	1.409877
H	0.326012	-0.872295	0.709599
H	0.612684	0.638233	-0.219499
H	1.814654	-2.704587	0.027569
H	3.451444	-2.308956	-0.780188
H	4.963641	-0.643335	0.172118
H	4.897488	1.756969	-1.015699
