17

C	0.983651	-0.096275	0.262396
C	2.413766	0.164001	-0.138122
C	3.212394	1.18858	0.684981
C	4.118378	-0.008792	1.009358
C	5.535035	0.048507	0.470994
O	6.337206	0.934599	1.200987
O	3.294372	-0.897523	0.256449
H	0.606764	-1.001326	-0.237202
H	0.338447	0.750132	-0.022032
H	0.909397	-0.24932	1.350092
H	2.474303	0.331781	-1.230575
H	2.668278	1.615601	1.538611
H	3.680046	2.003334	0.110185
H	4.15699	-0.28046	2.080711
H	5.495471	0.292488	-0.610956
H	5.988098	-0.952115	0.555487
H	5.981775	1.822568	1.087835
