17

C	1.005617	0.034992	0.107626
C	2.491134	-0.005869	0.003342
C	3.269562	-1.09718	-0.129887
C	4.73148	-0.770837	-0.157786
C	4.76038	0.768301	-0.187706
C	3.329637	1.200386	0.059695
C	2.898968	2.45051	0.283983
H	0.564358	-0.968741	0.040448
H	0.571215	0.659923	-0.689956
H	0.694051	0.484147	1.065288
H	2.88783	-2.120393	-0.184683
H	5.236175	-1.177593	0.737869
H	5.246815	-1.225462	-1.021091
H	5.084953	1.131808	-1.176505
H	5.454554	1.201899	0.547468
H	3.591432	3.295212	0.322193
H	1.839517	2.668519	0.439542
