12

N	0.92281	0.017303	-0.214701
C	2.303486	-0.006148	-0.07254
C	3.174566	1.043971	0.002135
O	4.466201	0.57143	0.054117
C	4.401166	-0.750855	0.025159
O	5.586943	-1.35837	0.07808
C	3.111038	-1.198513	-0.053753
H	0.499753	0.90583	0.027553
H	0.453961	-0.738351	0.27185
H	3.05471	2.122478	0.008067
H	5.44646	-2.309206	0.029363
H	2.771817	-2.230291	-0.109979
