16

O	0.724883	0.577655	0.384656
C	1.898266	0.335576	0.445912
C	3.006134	1.208678	-0.110905
C	2.528364	2.6398	-0.396278
C	3.107786	3.471497	0.766404
N	3.554417	2.470899	1.719948
C	4.107718	1.391346	0.935579
H	2.261713	-0.612039	0.926096
H	3.384336	0.685077	-1.007171
H	1.429051	2.657288	-0.416114
H	2.88922	3.00543	-1.367147
H	3.938038	4.106639	0.389516
H	2.363809	4.143623	1.222727
H	4.18773	2.83494	2.425785
H	5.069016	1.63523	0.429827
H	4.277479	0.48907	1.547764
