15

C	0.958042	0.797915	-0.267377
O	2.11746	0.959284	0.524527
C	2.979161	1.953341	0.202259
C	2.463913	3.335343	0.098071
O	1.314089	3.653737	0.290155
C	4.29085	1.65023	0.080108
C	5.453561	2.554681	-0.139589
H	0.506673	-0.156169	0.036607
H	1.213513	0.737413	-1.340813
H	0.237338	1.612783	-0.109148
H	3.226506	4.103032	-0.177083
H	4.522292	0.585061	0.200205
H	5.186027	3.610375	-0.272252
H	6.020255	2.233518	-1.029467
H	6.153888	2.488476	0.711107
