18

C	1.022831	0.023707	-0.165691
C	2.524955	-0.002512	-0.036351
N	3.049746	-0.087955	1.304618
C	3.358136	-0.686481	-1.092397
C	3.43048	0.816294	-0.948169
C	2.901773	1.726981	-2.017709
O	4.553787	1.328288	-0.328812
H	0.6993	0.101407	-1.212419
H	0.594812	0.880686	0.381848
H	0.580567	-0.897192	0.250378
H	3.140399	-1.050623	1.620738
H	2.462171	0.411404	1.967751
H	2.824977	-1.125662	-1.941052
H	4.241713	-1.241758	-0.764015
H	2.049411	1.291757	-2.55469
H	3.70149	1.932935	-2.745858
H	2.596791	2.690489	-1.580308
H	4.47799	0.993496	0.588188
