16

O	1.026032	0.076163	0.131933
C	2.429673	-0.010168	0.039573
C	2.782277	-1.423915	-0.417338
C	2.732185	-1.333547	-1.944619
N	3.220294	0.015829	-2.271444
C	2.210502	1.052152	-2.289352
C	3.03801	0.842328	-1.078305
H	0.793732	0.998517	0.281318
H	2.899935	0.235758	1.010498
H	2.100932	-2.169864	0.01663
H	3.807778	-1.660418	-0.093948
H	3.373286	-2.084209	-2.430812
H	1.705098	-1.486388	-2.317584
H	2.408539	1.899571	-2.956017
H	1.158098	0.750802	-2.217626
H	3.853268	1.530577	-0.824637
