16

N	1.008147	0.002077	-0.016017
C	2.45458	0.0129	0.020845
C	3.025826	1.121841	0.899383
C	4.441479	0.630038	1.163323
N	4.27126	-0.805095	1.331352
C	3.036027	-1.238542	0.690611
H	0.674707	-0.764721	-0.597783
H	0.661753	0.853762	-0.453849
H	2.92307	0.112575	-0.984878
H	2.441739	1.158164	1.833414
H	2.992731	2.117796	0.431202
H	5.095179	0.896258	0.30484
H	4.885761	1.09882	2.058621
H	5.083564	-1.34268	1.057237
H	3.200878	-2.055083	-0.03456
H	2.2985	-1.60496	1.43106
