16

C	1.867235	-0.920547	0.620304
C	3.23069	-0.306378	0.352257
C	3.167532	1.199	0.124379
O	2.608208	1.883767	1.21411
C	4.545437	1.807262	-0.203673
C	5.133142	1.299086	-1.434791
N	5.573942	0.866841	-2.414035
H	1.947398	-1.99476	0.841749
H	1.20474	-0.804773	-0.252117
H	1.376941	-0.426851	1.472089
H	3.704663	-0.780937	-0.522936
H	3.912853	-0.496603	1.203965
H	2.496086	1.402724	-0.727337
H	3.071634	1.606589	2.013241
H	5.244564	1.608202	0.627246
H	4.433395	2.900107	-0.279571
