17

C	-1.430257	0.714109	0.146082
C	-1.446994	-0.784941	-0.106502
O	-0.280252	-1.44915	0.305002
C	0.839655	-1.166791	-0.483866
C	1.654678	0.026624	-0.003706
O	0.945864	1.20987	0.25022
C	-0.239573	1.452884	-0.456337
H	-2.366134	1.143587	-0.252076
H	-1.418564	0.905665	1.231666
H	-1.622847	-0.975508	-1.187252
H	-2.279147	-1.250997	0.442982
H	1.504323	-2.047939	-0.461353
H	0.536331	-1.031602	-1.542107
H	2.150212	-0.236521	0.944938
H	2.456006	0.19903	-0.753596
H	-0.413258	2.538224	-0.381483
H	-0.137993	1.225835	-1.53824
