15

C	0.669278	0.338136	0.238788
C	1.991948	0.191079	0.325874
C	3.018643	1.245221	0.076298
C	2.593927	2.725809	-0.074958
C	3.739231	3.088673	0.86181
O	4.307764	4.107771	1.119463
C	3.952062	1.63302	1.261369
H	-0.007764	-0.49516	0.443728
H	0.209449	1.289014	-0.047493
H	2.397137	-0.790444	0.604761
H	3.639757	0.941073	-0.784416
H	1.626388	2.944389	0.407868
H	2.598949	3.186439	-1.073649
H	4.990458	1.269837	1.264131
H	3.498043	1.422455	2.244416
