14

O	2.806659	-0.901436	-0.79135
C	2.354028	0.077032	0.104201
C	3.371288	1.178788	0.154439
N	3.48472	2.131154	-0.925504
C	2.90957	2.58333	0.340505
C	3.65035	3.539854	1.126411
C	4.255096	4.348465	1.795146
H	2.217478	-1.65987	-0.742411
H	2.216118	-0.323378	1.1291
H	1.376006	0.503237	-0.207736
H	4.333079	0.889503	0.594812
H	2.749753	1.985253	-1.618076
H	1.820408	2.723592	0.385309
H	4.797336	5.064078	2.385121
