17

C	0.956115	0.064636	0.135797
C	2.465881	0.016826	-0.060821
C	2.98663	-1.325999	-0.583841
C	2.727331	-1.447812	-2.077928
O	3.240728	-0.321675	-2.748648
C	2.674696	0.852017	-2.260293
O	2.927064	1.061302	-0.908618
H	0.653883	1.074989	0.447122
H	0.653692	-0.645327	0.920422
H	0.396245	-0.190479	-0.776157
H	2.940232	0.225503	0.911098
H	2.529468	-2.163424	-0.033353
H	4.074917	-1.365829	-0.42046
H	3.224846	-2.33263	-2.50045
H	1.640948	-1.551396	-2.28367
H	3.135299	1.688814	-2.803098
H	1.578604	0.846704	-2.461602
