14

O	1.672637	2.074772	-1.096607
C	1.697211	1.677768	0.037604
C	2.760719	2.063293	1.028312
N	3.85428	2.730496	0.396766
C	4.688861	3.531267	1.244287
C	5.970001	3.93108	0.548522
O	6.614835	4.903052	0.830106
H	0.89297	1.010838	0.440498
H	3.083363	1.148775	1.56418
H	2.223328	2.669316	1.799644
H	3.520618	3.230371	-0.425392
H	5.008732	2.921903	2.112442
H	4.223225	4.446138	1.669592
H	6.285251	3.21599	-0.257384
