15

N	0.994488	0.035888	0.014096
C	2.439145	-0.008807	0.009255
C	3.052957	1.12965	0.841775
N	4.310714	0.564281	1.259096
C	4.346254	-0.801602	1.247974
O	5.259008	-1.494765	1.630682
C	3.005856	-1.253551	0.684561
H	0.61839	-0.763854	-0.491418
H	0.661862	0.861373	-0.482084
H	2.887741	0.054803	-1.005985
H	2.382077	1.355858	1.692255
H	3.19161	2.053751	0.257129
H	5.050254	1.090486	1.706541
H	3.129091	-2.129254	0.032788
H	2.360462	-1.543387	1.532306
