13

O	1.087082	0.056196	-0.420319
C	2.422069	-0.039485	0.000165
C	2.788146	-1.323364	0.755067
C	3.580293	-0.859722	1.974754
O	4.231952	-1.557842	2.709955
C	3.384811	0.607327	2.071223
C	2.714795	1.048511	0.998129
H	0.963047	-0.539018	-1.166089
H	3.112847	0.102613	-0.858316
H	3.348667	-2.076131	0.182546
H	1.855799	-1.787941	1.115139
H	3.758221	1.197992	2.909
H	2.410351	2.079616	0.801167
