14

C	1.009872	-0.46031	-0.312924
C	2.417482	-0.703777	0.178733
O	2.7418	-1.719972	0.762544
N	3.306565	0.297261	-0.059668
C	4.661763	0.199864	0.373659
C	5.432995	1.427528	-0.009706
O	4.95045	2.358435	-0.600429
H	0.347421	-0.356655	0.559178
H	0.676444	-1.347596	-0.868545
H	0.908003	0.431297	-0.947284
H	3.048443	1.151337	-0.542048
H	5.175373	-0.68445	-0.052229
H	4.743896	0.062118	1.470079
H	6.508623	1.42367	0.295511
