15

C	1.044746	0.02397	-0.209527
O	2.3374	0.137701	0.326872
C	2.981464	1.297353	0.068726
C	4.257651	1.41008	-0.324472
O	4.715106	2.689687	-0.366363
C	3.566541	3.528605	-0.230715
C	2.459481	2.675399	0.399604
H	0.681753	-0.984419	0.031408
H	1.04618	0.151088	-1.307948
H	0.344193	0.758505	0.228288
H	4.974773	0.625456	-0.562677
H	3.263158	3.861857	-1.239774
H	3.84934	4.412498	0.35757
H	1.473975	2.908261	-0.033062
H	2.37517	2.803078	1.495211
