13

C	0.941806	0.00469	-0.008298
C	2.422594	0.049256	-0.00045
C	3.288517	1.076737	0.005248
O	4.576627	0.614841	0.011247
C	4.558815	-0.749747	0.009527
N	5.630015	-1.424285	0.014376
N	3.217886	-1.09641	0.001981
H	0.530106	1.022223	-0.008018
H	0.549475	-0.521159	0.878086
H	0.558775	-0.516944	-0.901218
H	3.143974	2.152884	0.005848
H	5.436491	-2.423612	0.012028
H	2.884396	-2.047994	0.000302
