18

C	0.790895	-0.385833	0.062871
C	2.292811	-0.158706	-0.085181
N	2.98589	-1.19236	-0.843896
C	2.660065	1.172733	-0.675856
C	1.83179	2.186381	-0.976439
C	2.274999	3.44629	-1.550586
C	1.465707	4.473546	-1.84648
H	0.316945	0.36598	0.712811
H	0.599087	-1.376531	0.503207
H	0.292624	-0.34998	-0.919492
H	2.738323	-0.175365	0.929686
H	2.595761	-1.245519	-1.784353
H	2.834396	-2.104183	-0.416438
H	3.732314	1.281934	-0.880138
H	0.756078	2.090714	-0.787156
H	3.350409	3.537856	-1.747964
H	0.387893	4.41858	-1.66156
H	1.850553	5.400074	-2.278798
