14

N	1.485437	-0.483724	0.571112
C	2.307947	0.07686	-0.487465
C	2.798252	1.412397	-0.151456
C	3.167626	2.536719	0.104716
C	3.630835	3.884311	0.4345
C	2.893066	4.95415	-0.238325
C	2.288353	5.844918	-0.789925
H	1.147026	-1.401538	0.290412
H	0.662787	0.098997	0.713993
H	1.810521	0.148922	-1.479813
H	3.179682	-0.583693	-0.640774
H	4.703484	3.974829	0.184319
H	3.567057	4.034606	1.527613
H	1.752579	6.638768	-1.276565
