17

C	0.8601	0.103389	-0.061366
C	2.380695	0.054998	0.057786
C	3.045697	0.058431	-1.316265
O	2.747032	-1.147349	0.739093
C	3.44531	-0.875499	1.930069
C	3.519769	0.617183	2.012495
C	2.916307	1.146964	0.951302
H	0.400396	0.076233	0.937039
H	0.501827	-0.766772	-0.631887
H	0.52859	1.018104	-0.577099
H	4.13828	-0.000534	-1.206364
H	2.795733	0.971083	-1.879884
H	2.707227	-0.813031	-1.89723
H	4.451829	-1.340539	1.90695
H	2.915397	-1.313832	2.800144
H	4.002039	1.157116	2.829889
H	2.803553	2.208945	0.723669
