15

O	1.752207	-0.205912	1.336508
N	2.682838	-0.042425	0.324107
C	3.305867	1.064123	0.443846
N	4.209155	1.488757	-0.499004
C	5.289241	2.337972	-0.123933
C	5.713139	3.397464	-1.095484
C	4.985883	3.781511	0.157077
H	1.383903	-1.073221	1.146222
H	3.124847	1.750027	1.285353
H	4.412095	0.796307	-1.213567
H	6.087387	1.884595	0.483441
H	5.155504	3.449726	-2.033991
H	6.779018	3.62347	-1.178208
H	5.540484	4.274694	0.959341
H	3.943541	4.094522	0.057601
