16

C	1.777878	-0.000178	-0.5162
C	0.826192	0.754957	0.365924
C	0.826105	-0.75503	0.366066
C	-0.63452	-0.986255	-0.080413
C	-0.852272	-8.7e-05	-1.240508
C	-0.634404	0.98627	-0.080597
N	-1.409375	0.000128	0.733982
H	1.659346	-0.000282	-1.602594
H	2.824862	-0.000207	-0.196957
H	1.214144	1.342064	1.203558
H	1.213978	-1.34203	1.203813
H	-0.996945	-2.02399	-0.111251
H	-1.901825	-5.7e-05	-1.555522
H	-0.185112	-0.000206	-2.111371
H	-0.99671	2.024041	-0.111635
H	-1.118282	0.000202	1.716734
