16

C	1.581574	-0.397203	0.399667
O	2.967272	-0.287028	0.19776
N	3.323461	1.026947	0.093843
C	4.585716	1.193674	-0.032244
C	5.606023	0.102486	-0.029007
C	5.046656	2.616475	-0.192636
O	6.018369	2.979053	0.755332
H	1.36353	-1.472589	0.447068
H	1.016311	0.056309	-0.431923
H	1.270056	0.080667	1.344203
H	5.720284	-0.31753	-1.042248
H	5.297236	-0.719388	0.630659
H	6.575472	0.505542	0.293089
H	4.157761	3.273152	-0.179769
H	5.52819	2.728852	-1.179402
H	5.605228	2.941171	1.624911
