12

C	0.916438	-0.097087	0.193996
C	2.223163	-0.022177	-0.046217
C	3.068272	1.205303	-0.140419
O	4.23701	1.049638	0.642555
N	4.952064	-0.084645	0.344644
C	4.285237	-1.070908	-0.106996
O	2.951017	-1.161118	-0.282627
H	0.34094	0.814049	0.357316
H	0.409168	-1.062833	0.223317
H	2.54554	2.091251	0.239382
H	3.355999	1.379529	-1.196698
H	4.815441	-1.990192	-0.363114
