15

C	1.024414	-0.000128	0.320166
N	2.345586	-0.133669	-0.231671
C	2.898804	-1.441111	-0.460901
C	4.411784	-1.392252	-0.529284
O	5.06889	-2.188211	-1.139225
N	2.848713	0.788797	-1.054308
C	2.282093	1.918555	-1.245056
H	0.952887	0.907213	0.94287
H	0.808979	-0.865663	0.959678
H	0.243457	0.064355	-0.464496
H	2.524118	-1.933701	-1.379694
H	2.643456	-2.098424	0.389182
H	4.871283	-0.57105	0.076936
H	2.790918	2.623065	-1.908629
H	1.334988	2.232797	-0.784217
