16

N	1.445688	-0.408975	-0.358154
C	2.749456	0.012526	0.027689
C	3.677919	-1.040684	0.581063
C	3.953369	-0.426345	-0.757026
O	4.899142	0.594604	-0.779705
C	4.237514	1.812985	-0.492899
C	3.071661	1.457931	0.435319
H	1.044977	0.217215	-1.054106
H	0.81427	-0.424535	0.440535
H	3.289692	-2.062011	0.594441
H	4.350704	-0.766215	1.398354
H	3.854453	-1.016875	-1.67436
H	4.970209	2.506333	-0.05242
H	3.856511	2.272267	-1.427726
H	3.353648	1.535207	1.498273
H	2.196737	2.105671	0.272252
