12

C	0.891042	0.041239	0.052806
C	2.378693	0.017741	0.08457
C	3.178513	1.050702	-0.212034
C	4.662391	1.044122	-0.107265
O	5.27267	-0.155832	-0.154156
O	5.301152	2.05039	0.024813
H	0.502345	-0.730896	-0.631834
H	0.503127	1.018267	-0.26756
H	0.475834	-0.190026	1.047757
H	2.830468	-0.931042	0.408411
H	2.760153	2.026538	-0.475748
H	4.639672	-0.835083	-0.41452
