13

C	3.077614	-1.088923	0.538757
O	2.328401	0.077518	0.297297
C	3.023987	1.216145	0.187613
C	2.486945	2.462852	-0.064254
N	3.58205	3.298173	-0.086987
C	4.681484	2.54717	0.143379
N	4.373428	1.279491	0.313722
H	2.35588	-1.914134	0.594707
H	3.64036	-1.022846	1.484482
H	3.801771	-1.282192	-0.270193
H	1.468433	2.800659	-0.223952
H	3.562794	4.294972	-0.25433
H	5.685774	2.968375	0.178189
