14

C	0.27498	-0.372182	0.348248
C	1.72987	-0.205155	-0.006643
O	1.879865	1.025311	-0.698325
C	3.082827	1.386505	-1.112718
C	4.242382	0.705862	-0.963469
C	5.460919	1.232692	-1.468813
N	6.463959	1.651671	-1.877567
H	0.124876	-1.318504	0.887902
H	-0.346876	-0.386256	-0.55821
H	-0.066003	0.452993	0.990248
H	2.083729	-1.029706	-0.652231
H	2.365793	-0.192347	0.897244
H	3.05907	2.353751	-1.623803
H	4.292009	-0.261025	-0.458965
