14

C	1.058779	0.082869	0.004594
C	2.530458	-0.080273	-0.067867
C	3.29607	-1.179367	-0.11159
C	4.740351	-0.760435	-0.082692
C	4.601803	0.750857	-0.326411
O	3.235715	1.083624	-0.070726
H	0.554553	-0.891121	0.015462
H	0.693753	0.670457	-0.852832
H	0.784173	0.638846	0.915503
H	2.929572	-2.204052	-0.087707
H	5.211249	-0.989909	0.892083
H	5.362187	-1.242047	-0.854577
H	4.824736	1.005206	-1.377947
H	5.237392	1.372485	0.320136
