15

N	1.021042	0.056695	0.507142
C	2.415429	0.000187	0.125911
C	2.747968	1.16075	-0.796694
O	4.108256	1.152431	-1.184858
N	4.607436	-0.015006	-1.67982
C	3.962174	-1.09673	-1.470333
C	2.708763	-1.26369	-0.666522
H	0.845946	0.858691	1.110299
H	0.766801	-0.768199	1.047622
H	3.126098	0.04939	0.978636
H	2.595813	2.134724	-0.307842
H	2.093389	1.110611	-1.687871
H	4.435478	-1.981056	-1.911567
H	1.852941	-1.473721	-1.33319
H	2.815715	-2.143624	-0.009493
