19

C	1.524876	0.054907	1.843839
C	2.795091	-0.060697	1.022866
N	3.559282	1.165977	1.068598
C	4.789745	1.142176	0.32709
C	5.654958	2.393325	0.566848
N	6.448371	1.623155	1.525047
C	5.983751	0.361034	0.949298
H	0.919455	-0.861217	1.772051
H	0.919548	0.906842	1.498534
H	1.756103	0.217302	2.909801
H	2.537088	-0.260623	-0.032744
H	3.373642	-0.949773	1.363048
H	3.754235	1.422411	2.036024
H	4.566689	0.900014	-0.724507
H	5.124464	3.269559	0.978911
H	6.194158	2.70847	-0.348324
H	7.451347	1.787139	1.541767
H	6.645745	-0.074856	0.173935
H	5.737051	-0.429235	1.681058
