13

O	1.018444	-0.09597	0.043732
C	2.207109	0.0977	-0.021938
C	2.935978	1.353394	0.313584
C	4.238496	1.221332	0.008963
C	4.557526	-0.144776	-0.496093
C	4.327836	-1.241572	0.511724
C	3.254564	-0.887168	-0.49006
H	2.443687	2.220642	0.754895
H	5.004251	1.98783	0.154109
H	5.307143	-0.284163	-1.279495
H	4.840599	-2.196232	0.361104
H	4.186613	-0.954263	1.558805
H	2.975434	-1.620794	-1.249101
