17

C	2.888448	-0.732151	-1.375474
C	2.453371	-0.020453	-0.105968
C	2.992109	1.406816	0.026195
N	2.447573	2.059707	1.191418
C	2.785268	3.457063	1.341822
C	4.47681	1.411866	0.009335
N	5.633541	1.437755	0.064608
H	2.461403	-1.743944	-1.422262
H	3.983949	-0.828981	-1.430674
H	2.553732	-0.188657	-2.273467
H	2.77181	-0.596365	0.780684
H	1.35671	0.060545	-0.051134
H	2.67377	1.981149	-0.864195
H	2.692275	1.533731	2.027681
H	2.38058	4.02968	0.491539
H	3.873477	3.665014	1.399241
H	2.312801	3.851495	2.253131
