17

O	1.265964	-0.283574	0.1523
C	2.619376	-0.13952	-0.107092
C	3.06475	-0.431176	-1.498038
C	3.10633	0.984149	-0.979303
C	4.383262	1.708914	-0.694244
C	5.707016	1.002958	-0.611084
C	5.414724	1.911325	-1.767709
H	1.025393	0.365133	0.822144
H	3.297098	-0.453725	0.701368
H	2.273242	-0.669762	-2.212538
H	3.996473	-0.983773	-1.645001
H	2.302222	1.622043	-1.364856
H	4.259853	2.546623	0.002755
H	5.740855	-0.073351	-0.802547
H	6.418488	1.336849	0.14936
H	5.931544	2.872812	-1.824755
H	5.218781	1.445415	-2.738139
