19

C	0.993198	0.036448	0.167141
N	2.413076	0.001475	-0.077871
C	2.914355	-1.271186	-0.56673
C	2.664073	-1.474034	-2.063754
N	3.158002	-0.368143	-2.869113
C	2.674568	0.912691	-2.377456
C	2.921097	1.101612	-0.878077
H	0.721334	0.998574	0.630669
H	0.721484	-0.759566	0.879305
H	0.34682	-0.0894	-0.728696
H	2.470706	-2.08824	0.027059
H	4.006639	-1.302011	-0.385052
H	3.124836	-2.412661	-2.413575
H	1.579149	-1.574223	-2.248602
H	4.177626	-0.371178	-2.854564
H	3.145799	1.724924	-2.955204
H	1.591131	0.972884	-2.588163
H	4.013153	1.1733	-0.708241
H	2.480213	2.046194	-0.517196
