20

C	1.974114	-0.341704	-1.452773
C	2.398066	0.09254	-0.058279
C	3.161734	1.410123	-0.028767
C	2.375287	2.636096	-0.508041
C	3.121769	3.782914	0.15429
N	3.374541	3.251356	1.477138
C	3.640742	1.822667	1.380124
H	1.450801	-1.309856	-1.432769
H	2.846447	-0.448471	-2.118104
H	1.294507	0.391619	-1.915824
H	3.024002	-0.693801	0.399432
H	1.509739	0.187628	0.592543
H	4.048847	1.308753	-0.680642
H	1.34255	2.594466	-0.121955
H	2.327209	2.723467	-1.603745
H	4.043005	4.013678	-0.428364
H	2.528585	4.711681	0.202053
H	4.070752	3.765502	2.00451
H	4.709502	1.562192	1.510986
H	3.08657	1.268901	2.161237
