13

C	0.987046	-0.019273	-0.041167
C	2.515775	-0.026701	-0.000431
C	3.043435	-0.761437	1.226083
O	3.051118	-0.690733	-1.119749
C	3.001388	1.378885	0.022721
N	3.369583	2.475917	0.003875
H	0.621765	0.511771	-0.933899
H	0.562271	0.474254	0.844773
H	0.631647	-1.059	-0.080019
H	2.695131	-0.286039	2.153079
H	4.141816	-0.769781	1.213289
H	2.683991	-1.799599	1.19318
H	2.718416	-0.266143	-1.919157
