16

C	0.873258	0.048725	0.059144
C	2.381688	-0.021986	0.029552
C	3.198293	0.938332	0.904751
O	3.972271	-0.131055	1.438059
C	3.100052	-1.106096	0.856238
C	3.840223	-2.207395	0.144168
H	0.421811	-0.812167	-0.459199
H	0.503728	0.960911	-0.435619
H	0.49607	0.053489	1.094424
H	2.751117	-0.025493	-1.009386
H	2.595214	1.448575	1.68225
H	3.817012	1.694631	0.391412
H	2.429682	-1.538347	1.629189
H	4.502331	-1.789235	-0.62944
H	3.132233	-2.904582	-0.331356
H	4.459146	-2.777325	0.854144
