13

O	0.978014	0.11911	0.014174
C	2.371586	-0.007788	0.015883
C	2.947615	1.403713	0.00043
C	4.39839	1.432074	0.000103
C	5.617133	1.433019	5.4e-05
C	6.989139	1.434126	-4.6e-05
C	8.2062	1.434236	-0.000147
H	0.58966	-0.76043	0.023208
H	2.747377	-0.559684	-0.86893
H	2.747072	-0.539995	0.912812
H	2.558773	1.949599	0.877608
H	2.558727	1.930212	-0.8885
H	9.280623	1.43535	-0.000259
