12

C	0.953796	0.112349	-0.014135
C	2.452438	0.004909	-0.004839
C	3.121706	-1.174429	0.009081
C	2.472086	-2.43209	0.027317
C	1.926246	-3.517414	0.042423
C	3.21111	1.218061	-0.027054
N	3.796144	2.220407	-0.044609
H	0.620619	1.137984	0.187283
H	0.515554	-0.560908	0.737277
H	0.556264	-0.19188	-0.995876
H	4.216699	-1.173095	0.005504
H	1.447808	-4.479905	0.055439
