14

C	1.03463	-0.091553	-0.003286
C	2.499685	0.116615	-0.017594
C	3.304426	1.212266	0.015471
C	4.662212	0.74407	-0.01462
C	4.569918	-0.619675	-0.069002
N	5.496782	-1.633492	-0.186115
O	3.282356	-1.008328	-0.070374
H	0.524158	0.879074	0.044565
H	0.714969	-0.690595	0.866037
H	0.687457	-0.617008	-0.908766
H	2.969073	2.24663	0.061667
H	5.573969	1.33568	-0.003111
H	5.183277	-2.512375	0.21197
H	6.418048	-1.3811	0.149847
