15

O	1.734715	-0.655156	2.947709
C	2.435936	-0.08952	2.146492
N	3.77993	-0.287465	2.022818
N	4.522616	0.378735	1.096632
C	5.684564	1.169064	1.509398
C	6.357126	0.773013	0.183265
C	5.319819	-0.360051	0.114619
H	2.079763	0.665818	1.405324
H	4.220192	-0.963583	2.652869
H	6.202386	0.732447	2.387628
H	5.483683	2.233934	1.709188
H	6.210045	1.525758	-0.603246
H	7.415116	0.484697	0.222923
H	4.815922	-0.564266	-0.843658
H	5.714676	-1.313347	0.520509
