14

C	0.921199	0.086335	0.075329
N	2.351706	0.05948	-0.098586
C	2.765166	-0.718158	-1.242886
C	2.916162	1.385174	-0.081889
C	4.378107	1.37394	0.024184
N	5.532896	1.37297	0.089986
H	0.658419	0.602609	1.011858
H	0.536383	-0.941857	0.143033
H	0.383831	0.594703	-0.757422
H	2.386476	-1.746379	-1.148485
H	3.863368	-0.770081	-1.292066
H	2.395258	-0.304228	-2.208266
H	2.527594	1.936544	0.790558
H	2.651466	1.994238	-0.979708
