15

C	0.867824	-0.009504	0.430265
C	2.365197	-0.041126	0.172348
C	2.988491	1.335161	0.233321
O	4.37289	1.193261	-0.017496
N	4.99972	2.397488	0.024066
C	6.246893	2.307341	-0.197289
H	0.43329	-1.018741	0.385562
H	0.342934	0.610746	-0.313723
H	0.639172	0.404703	1.425506
H	2.577603	-0.478517	-0.817572
H	2.870838	-0.687311	0.908891
H	2.833472	1.798274	1.225393
H	2.538193	2.008366	-0.519199
H	6.821115	3.237192	-0.179775
H	6.744107	1.347747	-0.399309
