17

C	1.081408	-0.065228	0.055818
C	0.841215	0.430412	1.460174
C	-0.028273	-0.346063	2.402903
C	1.454362	-0.282835	2.630992
C	2.374131	0.442399	-0.523891
C	3.609546	-0.339844	-0.476136
O	2.865373	-0.22049	-1.66924
H	1.095456	-1.168183	0.035479
H	0.251184	0.248279	-0.601298
H	0.780624	1.52219	1.547622
H	-0.450963	-1.288973	2.043215
H	-0.684082	0.206134	3.08142
H	1.830179	0.310262	3.4694
H	2.04163	-1.183171	2.425717
H	2.470093	1.539065	-0.559289
H	3.597211	-1.33111	-0.003143
H	4.583346	0.167884	-0.463864
