13

C	1.822447	-0.303294	-0.622018
N	2.634948	0.647882	-0.818233
N	3.031188	1.27561	0.383968
C	4.314677	1.938348	0.236714
C	3.069169	2.740051	0.204009
C	2.615764	3.552378	1.301776
C	2.234663	4.251042	2.214764
H	1.452802	-0.85051	-1.496784
H	1.483281	-0.590614	0.385577
H	4.830593	1.800982	-0.719107
H	4.937287	1.931809	1.135473
H	2.766054	3.081638	-0.793371
H	1.895716	4.866799	3.027351
