14

N	0.922176	0.66468	0.139612
C	2.246553	0.607884	-0.159294
O	2.768902	-0.379555	-0.64309
C	3.046295	1.844469	0.137351
C	2.535102	3.079122	0.082601
C	4.503045	1.586495	0.424641
O	5.294268	2.737255	0.465797
H	0.538196	1.408736	0.702803
H	0.368753	-0.166248	-0.02389
H	1.493483	3.269309	-0.188566
H	3.176235	3.940395	0.288176
H	4.857559	0.837222	-0.308296
H	4.589586	1.099608	1.411724
H	5.357556	3.081207	-0.431837
