16

C	0.696677	0.039602	-0.539883
C	2.191324	-0.153511	-0.476855
O	2.785734	1.058175	-0.067155
C	4.162239	0.990859	0.089064
O	4.565138	0.182448	1.143789
C	4.192461	0.669688	2.404802
H	0.198677	-0.885023	-0.867275
H	0.439708	0.844271	-1.244625
H	0.301593	0.31529	0.449276
H	2.59069	-0.448411	-1.469067
H	2.455952	-0.963702	0.226839
H	4.496567	2.036289	0.235694
H	4.649201	0.567681	-0.810101
H	4.544813	-0.048952	3.157147
H	3.097843	0.781377	2.496423
H	4.655632	1.654069	2.612798
