12

C	0.297059	-1.40116	0.246403
C	-1.076052	-0.950052	-0.239864
C	-1.233142	0.479987	0.190802
N	-0.252463	1.296977	0.250993
N	0.971385	0.890805	-0.262845
C	1.273253	-0.348944	-0.194782
H	0.581647	-2.382846	-0.156684
H	0.305526	-1.489594	1.349566
H	-1.888152	-1.566625	0.169628
H	-1.138304	-1.023628	-1.342443
H	-2.202835	0.855292	0.543315
H	2.274598	-0.627142	-0.548158
