15

C	-1.65703	0.834772	0.448229
C	-1.103147	-0.360126	-0.279682
C	-0.232555	-1.359055	0.452103
O	1.091259	-1.293936	-0.032803
C	1.66754	-0.016112	-0.002646
O	0.777833	0.99117	0.383334
C	-0.405708	0.968231	-0.347503
H	-2.563002	1.299272	0.052897
H	-1.551913	0.870101	1.536589
H	-1.627112	-0.71664	-1.171043
H	-0.269301	-1.180576	1.544043
H	-0.564169	-2.391569	0.274728
H	2.489977	0.016863	0.734646
H	2.080418	0.185797	-1.012464
H	-0.39499	1.551678	-1.278079
