15

C	1.014449	-0.094964	-0.18056
O	2.385385	0.025355	0.097984
C	2.85841	1.330088	6e-06
O	2.32011	2.176534	0.96625
C	2.634549	1.843522	2.298296
C	4.33169	1.279244	0.038075
C	5.540907	1.284975	0.060434
H	0.749149	-1.153717	-0.061226
H	0.783811	0.214358	-1.21833
H	0.400038	0.512539	0.505217
H	2.542897	1.783849	-0.961458
H	2.074063	2.535311	2.940044
H	3.714221	1.958638	2.500754
H	2.342244	0.807259	2.537462
H	6.615697	1.284089	0.077672
