17

N	2.404565	-0.374689	-1.530896
C	2.450355	0.051556	-0.146475
C	3.32401	1.297195	0.007102
N	3.398918	1.739488	1.393058
C	3.291729	3.189011	1.468922
C	2.752661	3.556969	0.118617
C	2.778103	2.504239	-0.699366
H	1.718749	-1.114021	-1.660468
H	3.302198	-0.763949	-1.814605
H	2.819178	-0.714779	0.569372
H	1.434416	0.31951	0.186765
H	4.325911	1.051692	-0.422642
H	4.196272	1.365677	1.893015
H	4.262279	3.702689	1.650078
H	2.619411	3.511741	2.287772
H	2.400823	4.559964	-0.131906
H	2.45132	2.462887	-1.738754
