17

C	1.873988	-0.715419	0.363606
N	3.210581	-0.191555	0.238829
C	3.266229	1.218113	-0.058802
C	4.709526	1.699545	-0.165571
C	4.813837	3.171719	-0.368856
N	5.31583	3.638791	-1.440204
O	5.324062	5.00729	-1.463262
H	1.908429	-1.799912	0.548237
H	1.222407	-0.538638	-0.521597
H	1.369902	-0.254824	1.229747
H	3.727187	-0.711389	-0.467377
H	2.757252	1.763771	0.757487
H	2.721078	1.49655	-0.990942
H	5.218565	1.198901	-1.005475
H	5.235965	1.408036	0.760114
H	4.439624	3.858137	0.409274
H	5.72481	5.212295	-2.314158
