15

O	1.107512	0.019113	0.073374
C	2.306639	0.029715	0.029931
C	3.275986	-1.158845	0.067193
C	4.580282	-0.361616	-0.028301
C	4.248993	0.664534	-1.136527
C	3.252034	1.209928	-0.075539
C	4.324697	0.791931	0.96899
H	3.096138	-1.841046	-0.778981
H	3.161325	-1.732403	1.0007
H	5.521603	-0.927557	-0.027672
H	3.845481	0.295386	-2.093548
H	5.070365	1.372015	-1.322115
H	2.795182	2.205371	-0.119563
H	5.155446	1.512108	1.00839
H	3.992987	0.543326	1.990629
