17

C	3.909359	-2.470943	0.848652
O	4.84147	-1.471419	0.581924
C	4.271944	-0.218747	0.394428
C	5.318778	0.81212	0.089179
C	6.628131	0.552333	0.003433
O	4.713614	2.007547	-0.07875
C	5.518491	3.112893	-0.37779
H	4.455712	-3.415816	0.975836
H	3.181279	-2.5949	0.021132
H	3.336475	-2.270225	1.776716
H	3.709831	0.116272	1.293224
H	3.537893	-0.221642	-0.440908
H	6.959142	-0.471892	0.167694
H	7.371185	1.316948	-0.222093
H	4.850634	3.978392	-0.476948
H	6.068077	2.969746	-1.325499
H	6.251075	3.311031	0.42558
