15

C	1.101331	0.172933	0.485813
C	2.486465	-0.127991	-0.008376
C	3.355634	0.943211	-0.555803
N	3.621247	0.409516	0.779054
N	4.665921	-0.541687	0.740659
C	4.262666	-1.605376	0.1662
C	2.853212	-1.558909	-0.357988
H	1.041617	1.200517	0.870418
H	0.825396	-0.512615	1.30246
H	0.361763	0.060931	-0.322691
H	2.987992	1.973811	-0.585363
H	4.080344	0.684701	-1.336447
H	4.937394	-2.463116	0.070135
H	2.802352	-1.802986	-1.432154
H	2.199316	-2.27833	0.166711
