15

C	0.981392	-0.025891	-0.026292
N	2.416482	0.018618	0.078955
C	2.956257	1.357564	-0.019815
C	4.416555	1.37568	0.002987
C	5.628494	1.384012	-0.007987
C	7.082712	1.400071	-0.005428
H	0.633362	-1.068728	0.009568
H	0.566885	0.441672	-0.948459
H	0.524327	0.498391	0.830083
H	2.850491	-0.575113	-0.623328
H	2.575827	1.951243	0.833103
H	2.611383	1.904119	-0.930535
H	7.466226	2.430125	0.063422
H	7.491639	0.953696	-0.925777
H	7.486947	0.835801	0.849864
