16

C	0.562252	1.224482	0.663798
C	-0.870699	0.788204	0.433164
C	-0.875563	-0.000272	-0.863606
C	0.549014	-0.01303	-1.382758
C	1.214736	-0.009163	0.000104
N	0.554765	-1.162168	0.626367
C	-0.816679	-0.729159	0.448869
H	0.823766	2.168673	0.160653
H	0.819411	1.312012	1.732851
H	-1.736783	1.355199	0.77799
H	-1.750709	-0.048164	-1.513554
H	0.788812	-0.926857	-1.946578
H	0.808223	0.872503	-1.983032
H	2.310689	-0.068656	0.02286
H	0.78653	-1.203751	1.619288
H	-1.624335	-1.363334	0.817274
