12

O	1.108755	-0.031615	0.292442
C	2.285752	-0.00849	0.134558
C	3.329537	1.079848	-0.060623
C	4.289924	0.000992	-0.6105
C	3.350601	-1.120423	-0.084133
C	3.019136	-2.245765	-0.931773
N	2.746935	-3.124322	-1.635108
H	3.645529	1.503045	0.906934
H	3.03372	1.907837	-0.721618
H	4.340223	0.002633	-1.707715
H	5.308921	-0.011696	-0.204678
H	3.674216	-1.487325	0.905803
