19

C	1.021704	-0.020454	-0.04115
C	2.536438	-0.005034	0.048835
C	3.117004	1.126911	0.891638
C	4.537338	0.646454	1.18878
N	5.427574	1.026406	0.103832
C	4.325492	-0.874747	1.382822
N	3.052647	-1.173867	0.741388
H	0.667386	-0.88885	-0.619205
H	0.643267	0.88701	-0.537679
H	0.583041	-0.084784	0.96645
H	2.935242	0.090955	-0.989326
H	2.538212	1.207642	1.82604
H	3.11237	2.103241	0.3871
H	4.930177	1.105844	2.11022
H	5.099526	0.63003	-0.775729
H	6.356678	0.638744	0.256827
H	5.17864	-1.425871	0.943876
H	4.297192	-1.139569	2.4569
H	3.045973	-2.021991	0.18718
