13

C	1.61406	-0.961768	0.748966
C	2.387567	-0.301284	-0.113338
C	3.306038	0.83364	0.238277
C	4.740003	0.513277	-0.072007
C	5.508125	1.178653	-0.935142
H	0.974279	-1.787534	0.42608
H	1.589116	-0.698256	1.811888
H	2.389572	-0.600207	-1.169388
H	3.200077	1.065661	1.31264
H	3.009223	1.739562	-0.318615
H	5.154819	-0.355448	0.45499
H	5.128505	2.046304	-1.485471
H	6.544448	0.885621	-1.122619
