17

N	0.943549	0.033887	0.083415
C	2.381542	0.017158	0.013861
C	3.13786	1.035668	0.888217
C	4.179953	-0.053789	1.199109
O	5.292916	-0.044321	0.337058
C	3.1142	-1.103322	0.805268
N	3.614632	-2.307787	0.222326
H	0.555927	-0.766929	-0.41355
H	0.569327	0.860182	-0.38071
H	2.791036	0.034445	-1.02311
H	2.536205	1.291383	1.773064
H	3.513374	1.963076	0.426912
H	4.577905	-0.115662	2.223006
H	5.04047	0.381171	-0.488299
H	2.485205	-1.327257	1.685991
H	4.376384	-2.088692	-0.416348
H	2.898465	-2.821591	-0.28427
