15

O	1.135137	-0.235734	-0.085021
C	2.515108	-0.133144	-0.055919
C	3.180993	-0.721208	-1.24898
O	2.371092	-1.247792	-2.231981
C	3.219522	0.779433	-1.062601
C	4.42753	1.531053	-0.666824
C	5.599651	1.013758	-0.285015
H	0.756063	0.592906	0.225574
H	2.999847	-0.241221	0.924847
H	4.111826	-1.281772	-1.111735
H	1.465427	-1.168163	-1.897826
H	2.514973	1.295342	-1.725176
H	4.314856	2.622741	-0.659712
H	5.789657	-0.063895	-0.27495
H	6.424727	1.657247	0.029018
