13

O	1.645196	0.031883	1.447193
C	2.40623	0.013758	0.520392
C	2.952471	-1.24857	-0.150299
C	4.050212	-0.754125	-1.050243
O	5.033869	-0.009793	-0.35722
C	4.055095	0.717376	-1.074962
C	2.96078	1.24909	-0.192351
H	2.13721	-1.730626	-0.717039
H	3.293383	-1.963591	0.613749
H	4.407312	-1.355777	-1.894023
H	4.416171	1.287907	-1.938426
H	3.306452	1.987181	0.547169
H	2.14871	1.717186	-0.77511
