16

O	0.870546	0.202606	0.483763
C	2.169669	-0.022026	0.036864
C	3.157465	0.976065	0.656282
N	3.650685	-0.068898	1.54754
C	2.979869	-1.124538	0.801949
C	3.801331	-1.996095	-0.095368
C	5.096967	-1.840338	-0.372508
H	0.306067	-0.495293	0.135674
H	2.222862	-0.115041	-1.064245
H	2.663701	1.822715	1.162164
H	3.887683	1.372311	-0.073361
H	4.651524	-0.154436	1.69243
H	2.322662	-1.757698	1.430051
H	3.249835	-2.81657	-0.573166
H	5.687123	-1.034575	0.076362
H	5.620682	-2.511239	-1.05788
