11

N	1.121869	-0.109651	0.294423
C	2.348666	-0.03788	0.002338
N	3.201034	-1.110952	-0.200396
C	4.456562	-0.648547	-0.503405
C	4.541517	0.71088	-0.524175
C	3.215327	1.217954	-0.205386
O	2.769912	2.338288	-0.098446
H	0.771691	0.853101	0.37774
H	2.919588	-2.079167	-0.139215
H	5.2564	-1.365504	-0.696043
H	5.427254	1.303368	-0.737685
