15

C	1.842894	-0.095549	1.627311
C	2.739563	-0.181298	0.636716
C	3.193815	0.972699	-0.122889
N	4.052066	0.837694	-1.057356
N	4.370573	2.058632	-1.682448
C	4.68707	1.852139	-3.095011
C	5.766392	2.071031	-2.119021
H	1.516487	-0.977725	2.182913
H	1.404974	0.86586	1.914145
H	3.177529	-1.142439	0.348922
H	2.784938	1.968634	0.118888
H	4.351045	2.653857	-3.759215
H	4.554877	0.832895	-3.471919
H	6.365861	1.200276	-1.834566
H	6.262806	3.042144	-2.030369
