16

C	0.959024	0.0931	0.230102
C	2.438507	-0.018504	-0.095319
C	3.325589	0.973262	0.719854
N	3.656216	-0.118454	1.629184
C	3.19558	-1.121655	0.666515
C	2.688494	0.050398	-1.577871
O	3.446405	-0.655029	-2.188237
H	0.817535	0.118304	1.320614
H	0.396666	-0.765489	-0.17034
H	0.525429	1.013588	-0.194196
H	2.793845	1.827258	1.17632
H	4.173503	1.367653	0.126006
H	4.627279	-0.18227	1.921188
H	3.980009	-1.569215	0.029959
H	2.577858	-1.929886	1.095136
H	2.111833	0.86015	-2.102843
