15

C	2.598497	-1.116495	-0.216655
C	3.795724	-0.272962	0.1782
N	3.625183	1.099171	-0.219797
C	4.565933	1.927139	0.04208
N	5.756391	1.715073	0.655382
C	4.343864	3.344082	-0.387955
O	5.142949	4.223189	-0.187206
H	2.72601	-2.164753	0.093411
H	2.453467	-1.089032	-1.306942
H	1.683684	-0.723217	0.250698
H	4.717907	-0.69561	-0.276048
H	3.953157	-0.340046	1.276815
H	6.009146	0.824542	1.053489
H	6.351208	2.520292	0.806712
H	3.36793	3.495997	-0.904814
