16

C	0.99903	-0.012887	0.024676
C	2.520508	-0.00863	-0.047304
C	3.030436	-0.780137	-1.258281
C	3.059612	1.422097	-0.027611
N	4.508112	1.452471	0.020931
H	0.62933	0.508127	0.922411
H	0.601916	-1.039332	0.046098
H	0.564625	0.491054	-0.855455
H	2.904795	-0.510204	0.863456
H	2.616145	-0.354544	-2.18835
H	2.732785	-1.839461	-1.215344
H	4.126241	-0.718393	-1.321357
H	2.566972	1.969647	0.8061
H	2.733918	1.928387	-0.954917
H	4.836434	1.121569	0.926679
H	4.853922	2.403466	-0.078663
