10

C	0.352712	1.076489	-0.03845
C	0.96411	-0.311225	0.190851
O	-0.321461	-0.913642	0.310211
C	-0.981046	0.332906	0.107135
H	0.566905	1.823973	0.737819
H	0.542669	1.520202	-1.025471
H	1.567676	-0.422472	1.110685
H	1.545038	-0.723948	-0.654404
H	-1.625722	0.326165	-0.791124
H	-1.601101	0.626572	0.974338
