11

C	2.762171	-1.08589	0.382309
C	2.2382	0.10836	0.091876
C	3.036766	1.323934	0.02236
N	2.506039	2.490389	-0.257555
O	3.568062	3.351374	-0.226833
C	4.642358	2.627704	0.068262
N	4.395518	1.374739	0.23579
H	2.137841	-1.980763	0.426817
H	3.831545	-1.192067	0.583619
H	1.172204	0.237204	-0.112601
H	5.595405	3.152417	0.136396
