17

C	1.105874	0.185367	0.133752
C	2.599655	-0.020506	-0.115712
N	2.909226	-0.734673	-1.346506
C	3.333105	1.301403	-0.100906
C	3.832486	1.878079	1.190722
C	4.801698	1.340963	0.175397
H	0.920902	0.69597	1.092332
H	0.56953	-0.776829	0.151235
H	0.663837	0.802312	-0.666877
H	3.005987	-0.626308	0.716287
H	2.58697	-0.190485	-2.147132
H	2.391517	-1.611188	-1.380879
H	2.954794	2.022424	-0.838098
H	3.670044	1.295614	2.102952
H	3.774404	2.959906	1.339147
H	5.419993	2.049946	-0.381614
H	5.292078	0.385586	0.381541
