16

N	1.224652	0.074464	0.061449
C	2.655606	-0.127127	-0.118115
C	2.846001	-0.803083	-1.477935
O	2.19061	-0.076174	-2.472168
C	3.34391	1.215679	-0.104209
C	3.864519	1.792908	1.136526
O	4.721313	1.195928	0.188125
H	1.030662	0.690746	0.847302
H	0.753868	-0.808794	0.247936
H	3.135255	-0.748356	0.666182
H	2.473302	-1.849017	-1.411333
H	3.92011	-0.857521	-1.718865
H	1.374112	0.227492	-2.041047
H	3.049062	1.883461	-0.925712
H	3.743159	1.241997	2.080174
H	3.949387	2.882528	1.241809
