16

C	2.439592	-0.843663	-0.833341
O	2.088433	0.314467	-0.133828
C	3.149438	1.178015	0.056897
C	3.549751	2.104277	-1.059215
C	2.831505	2.627632	0.161086
C	3.531141	3.510385	1.158444
H	1.531925	-1.452702	-0.951106
H	3.196295	-1.443504	-0.289852
H	2.845862	-0.614337	-1.837513
H	3.954113	0.781819	0.697713
H	2.976349	2.032085	-1.987512
H	4.608954	2.347073	-1.188711
H	1.769669	2.844198	0.000987
H	4.582171	3.207757	1.288514
H	3.045385	3.463089	2.146042
H	3.529286	4.56227	0.830505
