17

C	1.216718	-0.106589	-0.684291
O	2.600047	-0.172998	-0.467123
C	3.242679	1.000294	-0.334839
C	4.569509	1.0853	-0.098621
C	5.422553	-0.137833	0.035176
C	5.164592	2.4084	0.02463
C	6.458805	2.672643	0.263901
H	0.850161	-1.13747	-0.771216
H	0.973747	0.433421	-1.61754
H	0.693152	0.384506	0.156072
H	2.62585	1.903992	-0.432099
H	4.824761	-1.051376	-0.073077
H	5.92234	-0.162623	1.017602
H	6.217942	-0.148821	-0.728749
H	4.475282	3.254353	-0.091381
H	7.200346	1.879563	0.391457
H	6.817828	3.701289	0.342037
