15

C	0.945417	-0.048838	0.06681
C	2.440625	-0.100426	-0.021367
N	2.977903	-1.290844	-0.345403
C	3.208693	1.010655	0.222534
C	4.660339	0.974297	0.11713
N	5.314888	2.144738	0.368963
O	5.303386	-0.036136	-0.190862
H	0.590327	0.951247	0.34298
H	0.578739	-0.769416	0.815841
H	0.493788	-0.322623	-0.901039
H	2.395168	-2.078057	-0.581505
H	3.99884	-1.308559	-0.435329
H	2.707632	1.941457	0.491796
H	4.837053	2.976563	0.677976
H	6.324341	2.136662	0.332774
