19

C	2.933754	-0.901882	-1.024775
C	2.456443	-0.015342	0.115648
C	3.039497	1.398721	0.110794
C	2.436652	2.26802	1.208376
C	4.542986	1.375658	0.249874
C	5.451896	1.492216	-0.890821
O	5.219971	2.583302	-0.027402
H	2.441834	-1.885475	-0.999849
H	4.020037	-1.075138	-0.982381
H	2.711605	-0.444916	-2.003138
H	2.691894	-0.493199	1.085106
H	1.356437	0.064852	0.086697
H	2.815218	1.867309	-0.865609
H	2.632407	1.83702	2.204664
H	1.345482	2.358045	1.091938
H	2.871847	3.277432	1.184529
H	4.909904	0.847659	1.146065
H	5.0315	1.583078	-1.901685
H	6.454876	1.04757	-0.843602
