14

O	1.264381	-0.196484	0.060396
C	2.627815	0.098488	-0.032085
C	2.845501	1.583571	0.032819
C	1.830726	2.451677	0.162253
C	4.22164	2.058783	-0.050773
N	5.187712	1.230981	-0.174798
O	6.400088	1.850837	-0.236559
H	1.159053	-1.150131	0.013512
H	3.078886	-0.270793	-0.975629
H	3.219767	-0.368446	0.781489
H	0.802398	2.093105	0.225681
H	2.013426	3.528933	0.208342
H	4.417365	3.141411	-0.004856
H	7.022912	1.122387	-0.329332
