15

C	-1.438841	0.81524	0.541875
C	-1.169182	-0.424685	-0.255465
C	-0.24559	-1.446527	0.253883
C	1.042296	-1.161772	0.548119
C	1.633249	0.112864	0.185061
C	0.916866	1.058751	-0.462232
C	-0.534905	0.940886	-0.647406
H	-2.43587	1.253408	0.457574
H	-0.977623	0.885391	1.530783
H	-1.998641	-0.787072	-0.871117
H	-0.624916	-2.465821	0.369185
H	1.691174	-1.939294	0.959721
H	2.706425	0.253369	0.339473
H	1.416199	1.934123	-0.887223
H	-0.954993	1.457228	-1.516652
