20

C	2.951616	-1.047998	-0.174387
C	2.686048	-0.016509	0.909179
C	3.540528	1.250809	0.783223
C	3.053884	2.351488	1.735585
N	1.679547	2.722213	1.4623
C	4.991706	0.962299	1.026911
C	5.982824	1.13146	0.150878
H	2.324815	-1.942386	-0.039856
H	4.004401	-1.370816	-0.178768
H	2.732673	-0.637658	-1.173971
H	2.865687	-0.461679	1.905937
H	1.629635	0.294315	0.901115
H	3.436695	1.63582	-0.250626
H	3.773729	3.1957	1.6831
H	3.108544	1.966039	2.769545
H	1.616372	3.216197	0.573823
H	1.326152	3.357554	2.173123
H	5.228489	0.571167	2.026822
H	5.791897	1.512593	-0.858038
H	7.019609	0.893113	0.404495
