15

C	1.638544	-0.02193	-0.510641
O	2.973119	0.394357	-0.424758
C	3.222408	1.659375	-0.040701
C	2.307645	2.604151	0.220954
C	4.709053	1.891424	0.052689
C	5.352949	1.097165	1.094613
C	5.888286	0.447137	1.963886
H	1.653017	-1.078769	-0.805919
H	1.079916	0.557343	-1.267757
H	1.121879	0.077171	0.46069
H	1.234494	2.428718	0.141072
H	2.636136	3.595	0.533935
H	4.902318	2.96079	0.225739
H	5.159435	1.633948	-0.922391
H	6.359909	-0.130771	2.736798
