16

C	0.942425	-0.163835	-0.008012
C	2.432995	-0.051762	-0.00406
C	3.185176	-1.356461	-0.009833
C	3.09665	1.131034	0.001165
C	2.504657	2.513288	0.005094
C	4.530595	1.091651	0.003168
N	5.691532	1.074651	0.004794
H	0.419923	0.799367	-0.006724
H	0.606383	-0.739171	0.871678
H	0.610611	-0.734524	-0.89239
H	2.499569	-2.214399	0.015858
H	3.863047	-1.433882	0.854745
H	3.815105	-1.450495	-0.908671
H	1.408229	2.494286	-0.005051
H	2.844392	3.085679	-0.872968
H	2.8284	3.073971	0.896777
