20

C	1.683118	-0.739255	-0.539771
O	2.939916	-0.19265	-0.29982
C	2.94611	1.20324	-0.257939
C	4.372403	1.655139	-0.007458
N	4.49303	3.082175	0.183502
C	5.709602	3.446003	0.865417
C	4.313529	3.842082	-1.028729
H	1.78553	-1.834178	-0.552289
H	1.266648	-0.41554	-1.515762
H	0.950014	-0.46365	0.245673
H	2.297002	1.591133	0.55487
H	2.552863	1.620053	-1.209062
H	5.020299	1.274323	-0.830958
H	4.709462	1.147067	0.909905
H	5.776914	2.92161	1.830444
H	5.717717	4.527803	1.072195
H	6.631383	3.208423	0.284892
H	3.336609	3.630527	-1.487852
H	5.097443	3.633998	-1.794102
H	4.33969	4.920029	-0.804597
