14

C	0.714805	-1.209034	0.505171
O	-0.536653	-1.502991	-0.090166
C	-1.494631	-0.557874	-0.093458
C	-1.287635	0.757268	0.059793
C	0.096801	1.254983	0.201079
N	1.034211	0.882346	-0.878472
C	1.145458	0.232604	0.410017
H	1.443417	-1.873406	0.015999
H	0.671895	-1.479568	1.57755
H	-2.482415	-0.992153	-0.272134
H	-2.131793	1.446273	0.017133
H	0.232621	2.232776	0.676611
H	1.75841	1.592603	-0.983677
H	1.99059	0.478914	1.067244
