21

C	2.110084	-1.316833	-0.177664
C	1.801373	0.15773	0.037552
C	3.031048	1.023029	0.25041
C	3.903459	0.677202	1.444216
C	3.191917	0.779758	2.785845
C	3.724155	1.540316	-0.979667
C	2.920883	2.476424	-0.119064
H	1.195914	-1.889277	-0.396355
H	2.575227	-1.77107	0.711073
H	2.805359	-1.455097	-1.021227
H	1.116866	0.276383	0.896147
H	1.248526	0.547692	-0.834209
H	4.777298	1.350352	1.442859
H	4.315599	-0.338951	1.313998
H	2.758441	1.782701	2.927017
H	3.884775	0.592423	3.620337
H	2.370943	0.050862	2.873779
H	3.316887	1.262233	-1.95636
H	4.814743	1.629576	-0.961406
H	3.461078	3.206363	0.491679
H	1.965014	2.841173	-0.50642
