17

C	1.262861	-0.266666	0.282544
C	2.714375	-0.157208	-0.100926
C	3.167586	-0.469041	-1.500657
C	3.190374	0.945129	-1.001171
C	4.509481	1.638274	-0.728943
C	5.104829	2.237184	-1.919482
C	5.585618	2.729696	-2.916178
H	1.023376	0.378752	1.142775
H	0.996519	-1.300782	0.553077
H	0.609866	0.034971	-0.551859
H	3.416723	-0.444996	0.690867
H	2.407581	-0.741993	-2.238827
H	4.126455	-0.977644	-1.6373
H	2.415406	1.608855	-1.400354
H	5.222615	0.914851	-0.296157
H	4.369624	2.422582	0.036044
H	6.0113	3.164458	-3.801272
