19

C	0.933961	-0.19634	0.088134
C	2.448596	-0.047607	0.006568
C	3.118379	-0.701118	1.221617
C	2.935907	-0.764859	-1.27389
O	4.32152	-0.709858	-1.471569
C	2.887776	1.395472	-0.059571
C	2.116646	2.482078	-0.126067
H	0.431208	0.243218	-0.788238
H	0.534735	0.293153	0.989776
H	0.654174	-1.260529	0.134436
H	2.847606	-0.179393	2.152162
H	4.212962	-0.683627	1.111135
H	2.806534	-1.753985	1.314064
H	2.380839	-0.356124	-2.141884
H	2.6723	-1.83301	-1.193709
H	4.54636	0.176431	-1.770861
H	3.97743	1.537199	-0.038755
H	1.024485	2.42617	-0.132793
H	2.556663	3.481979	-0.169744
