13

C	1.702009	-0.581208	1.240043
C	2.474473	-0.149086	0.24752
C	3.115613	1.226229	0.161095
C	2.821534	2.093153	1.305686
C	2.567211	2.816549	2.241111
C	4.562722	1.104076	-0.065969
C	5.749809	0.980113	-0.26263
H	1.273335	-1.585735	1.217703
H	1.475954	0.051835	2.103088
H	2.701285	-0.795104	-0.607357
H	2.691888	1.72105	-0.736448
H	2.346345	3.459397	3.073288
H	6.804623	0.86999	-0.435091
