17

C	1.153368	0.002661	0.381234
C	2.579339	0.014041	-0.133356
C	2.955632	-1.177142	-1.045612
N	3.794236	-0.64017	-2.10968
C	3.681362	0.626698	-2.023713
N	2.877007	1.131774	-1.025998
C	3.016008	2.461215	-0.508178
H	0.932106	0.888368	0.997437
H	0.978815	-0.885849	1.007736
H	0.443281	-0.018988	-0.459908
H	3.2744	0.062241	0.733695
H	2.045572	-1.620497	-1.493376
H	3.466507	-1.986834	-0.501621
H	4.165221	1.326355	-2.717229
H	2.063312	2.820495	-0.088505
H	3.296578	3.149272	-1.318987
H	3.785957	2.53179	0.288211
