17

C	1.183911	0.735647	1.377865
N	1.641796	2.01109	0.902026
C	2.908062	2.157671	0.416277
C	3.178509	3.524988	-0.193312
O	2.127573	4.442596	-0.042784
N	3.757431	1.206059	0.498649
C	5.096581	1.41613	0.024898
H	0.177726	0.843726	1.805879
H	1.867354	0.360705	2.153836
H	1.160006	-0.029922	0.580577
H	0.968631	2.679938	0.549822
H	3.341551	3.396012	-1.276333
H	4.131246	3.911689	0.215179
H	2.090198	4.694935	0.886413
H	5.680097	0.488988	0.136403
H	5.643771	2.201791	0.584869
H	5.149739	1.696145	-1.046683
