15

C	0.956096	-0.000301	-0.009592
C	2.410103	-0.000565	0.00053
C	3.623074	-0.002403	0.011568
C	5.071773	0.00839	0.026501
C	5.81745	1.008807	0.938026
O	6.640217	-0.023138	1.467472
C	5.834449	-1.033999	0.874918
H	0.558916	1.026695	0.005746
H	0.550202	-0.528174	0.867828
H	0.562981	-0.496516	-0.91106
H	5.463147	0.043332	-1.003021
H	5.166427	1.46948	1.703827
H	6.396585	1.799483	0.432074
H	6.426507	-1.782103	0.321372
H	5.191354	-1.551627	1.610379
