14

C	1.28944	-0.562555	-0.02875
C	2.777678	-0.310791	0.04139
O	3.559666	-1.167801	0.400681
N	3.178737	0.936529	-0.34297
C	4.564498	1.333967	-0.286552
C	4.785746	2.528417	0.525419
C	4.957758	3.529267	1.184565
H	0.693255	0.321165	-0.296227
H	0.958456	-0.942289	0.947809
H	1.104872	-1.358523	-0.764911
H	2.489254	1.629869	-0.599058
H	4.971302	1.502598	-1.300324
H	5.109059	0.473336	0.135848
H	5.121379	4.413522	1.772789
