19

C	0.938375	-0.011879	-0.03439
C	2.445628	0.002555	0.076782
C	3.163897	1.029127	0.974633
C	4.219846	-0.042702	1.300604
C	3.208262	-1.121756	0.838335
C	2.432874	-1.729603	1.98882
O	3.687381	-2.196399	0.080049
H	0.590833	-0.899419	-0.586791
H	0.569588	0.878875	-0.567625
H	0.460363	-0.024346	0.957364
H	2.889646	0.052988	-0.935519
H	2.555858	1.29262	1.854732
H	3.507759	1.963253	0.506577
H	5.07531	0.005191	0.607125
H	4.60749	-0.111108	2.328903
H	2.02812	-0.959094	2.660614
H	3.100849	-2.384618	2.567816
H	1.599852	-2.338334	1.607288
H	4.172199	-1.836532	-0.669977
