15

C	1.123159	-0.108526	0.335048
C	2.5416	0.026598	-0.203076
O	2.678623	-0.595942	-1.450816
C	3.008703	1.480571	-0.230608
C	3.532106	2.033895	-1.336365
C	2.892158	2.215079	0.990818
C	2.781769	2.80294	2.047733
H	1.033184	0.306669	1.348355
H	0.835631	-1.169403	0.356322
H	0.414814	0.43529	-0.312385
H	3.227558	-0.514122	0.473204
H	1.987843	-0.247368	-2.027057
H	3.649387	1.431852	-2.239941
H	3.869849	3.071538	-1.346915
H	2.689545	3.328177	2.980404
