19

N	0.972449	0.029572	0.021041
C	2.422113	0.031139	0.02044
C	3.013304	1.116973	0.919073
C	4.443309	0.644823	1.125774
C	4.309844	-0.866974	1.363468
N	5.532787	-1.569754	1.037119
C	3.01033	-1.264379	0.600207
H	0.621586	-0.708574	-0.587068
H	0.621665	0.902236	-0.371194
H	2.856577	0.182168	-0.993917
H	2.457769	1.115783	1.872608
H	2.93482	2.127895	0.48759
H	5.030739	0.809868	0.204304
H	4.979774	1.153746	1.939443
H	4.13484	-1.024892	2.441146
H	5.71086	-1.516454	0.034544
H	5.450965	-2.559164	1.262173
H	3.227674	-2.014125	-0.178009
H	2.265733	-1.705377	1.283319
