17

C	1.11836	0.03374	-0.29318
O	2.505224	0.195636	-0.221176
C	3.000551	1.441747	-0.06204
C	2.2574	2.563701	0.028234
C	4.462615	1.468315	0.00336
C	5.248442	0.386115	-0.086393
C	6.736609	0.403759	-0.023912
H	0.928023	-1.04033	-0.415913
H	0.68754	0.576094	-1.154419
H	0.617579	0.385306	0.627479
H	1.169027	2.568301	-0.022024
H	2.75961	3.522068	0.158165
H	4.907932	2.459843	0.134767
H	4.762527	-0.587274	-0.216948
H	7.134109	1.421571	0.102387
H	7.177354	-0.025019	-0.940283
H	7.106156	-0.214862	0.811855
