16

C	0.789654	1.821746	-1.281832
C	0.433809	0.552441	-0.525602
C	1.617685	-0.031077	0.213678
O	1.201367	-1.202398	0.874642
C	2.111374	-1.879802	1.590393
C	3.403205	-1.585552	1.781189
H	-0.085243	2.229552	-1.809055
H	1.573497	1.637394	-2.034162
H	1.160414	2.606312	-0.602431
H	0.044245	-0.213405	-1.216509
H	-0.369025	0.747665	0.20415
H	2.018388	0.695492	0.948144
H	2.441024	-0.266844	-0.488852
H	1.655305	-2.768393	2.038466
H	3.890905	-0.708953	1.3524
H	4.008057	-2.252108	2.396849
