16

C	0.682155	-0.094247	-0.064998
C	2.120001	-0.501838	0.071878
C	2.488709	-1.776464	0.2431
C	3.14495	0.60056	-0.00014
C	3.088519	1.540525	1.214958
C	4.090324	2.597963	1.159351
N	4.890697	3.431682	1.097559
H	0.3689	0.581867	0.748496
H	0.010044	-0.963111	-0.052793
H	0.519888	0.455219	-1.007771
H	1.751487	-2.582761	0.293253
H	3.541409	-2.05914	0.333082
H	2.98602	1.198092	-0.914356
H	4.155451	0.171844	-0.071634
H	3.241355	0.964899	2.142605
H	2.099433	2.01796	1.300782
