13

C	0.970969	-0.019183	0.233643
C	2.444701	-0.059957	-0.151658
O	2.616556	-0.593777	-1.419714
C	3.08021	1.323171	-0.100847
O	3.62243	1.777858	-1.085461
C	3.026621	2.042758	1.157182
C	2.972579	2.620306	2.221661
H	0.826897	0.353819	1.257954
H	0.557565	-1.035017	0.166501
H	0.417022	0.622957	-0.467053
H	2.991399	-0.660162	0.609592
H	3.135587	0.063496	-1.913884
H	2.932545	3.1431	3.161115
