19

C	1.765919	-0.449275	1.196185
C	2.112619	0.196117	-0.137911
C	3.21012	1.223945	-0.022919
C	3.360811	2.335133	-1.03151
C	2.903649	2.625094	0.372077
O	3.7726	3.238372	1.252485
C	3.829546	4.625964	1.094685
H	0.956887	-1.188724	1.091719
H	1.443116	0.308016	1.927951
H	2.639055	-0.965894	1.625814
H	1.215434	0.674849	-0.568036
H	2.415181	-0.5776	-0.864897
H	4.153627	0.854924	0.395389
H	2.635	2.405339	-1.847657
H	4.377455	2.642472	-1.289956
H	1.843366	2.894722	0.509806
H	4.55415	5.017333	1.822704
H	2.849157	5.106175	1.284158
H	4.15618	4.914409	0.076755
