20

C	1.007498	-0.135854	0.049337
C	2.523388	-0.159337	0.137001
C	3.143183	1.231488	0.017955
O	2.620025	2.112819	0.97504
C	4.679757	1.195581	0.178985
C	5.308933	2.477925	-0.340944
N	4.9622	1.009533	1.606114
H	0.571255	-1.132626	0.214306
H	0.671238	0.217647	-0.939234
H	0.598012	0.553911	0.801538
H	2.947412	-0.811128	-0.647671
H	2.839345	-0.588966	1.105338
H	2.893089	1.647874	-0.975299
H	3.09815	1.854531	1.784226
H	5.067362	0.339363	-0.402116
H	4.855879	3.33971	0.174319
H	5.126354	2.601501	-1.418782
H	6.397614	2.491145	-0.172028
H	5.589734	1.727998	1.956506
H	5.394385	0.113234	1.805789
