17

C	0.998024	0.001284	0.018564
C	2.520173	-0.030246	-0.019729
C	3.033648	-1.250275	-0.814505
C	3.382487	-0.672403	-2.156704
C	3.368361	0.664932	-2.148367
C	3.092171	1.201798	-0.767399
O	4.25706	1.744997	-0.182892
H	0.628046	0.898816	0.538369
H	0.59134	-0.879901	0.538261
H	0.582092	0.008759	-1.002809
H	2.912316	-0.013964	1.009577
H	2.272161	-2.046163	-0.887326
H	3.918332	-1.725367	-0.352344
H	3.633813	-1.291737	-3.022584
H	3.615791	1.311986	-2.993504
H	2.363166	2.030016	-0.768094
H	4.968379	1.110547	-0.328022
