12

C	3.078635	-1.104308	0.559714
O	2.335855	0.062239	0.280597
C	3.025321	1.19447	0.155675
C	2.525041	2.438045	-0.115232
O	3.592909	3.284425	-0.150548
C	4.656498	2.522097	0.096083
N	4.387053	1.269971	0.287089
H	2.351022	-1.923063	0.622464
H	3.623262	-1.018081	1.513668
H	3.810872	-1.317468	-0.235841
H	1.537141	2.846438	-0.293852
H	5.629899	3.009596	0.114624
