15

C	1.023599	0.006141	-0.015535
C	2.352881	-0.030485	-0.01682
C	3.322112	-1.200906	0.024781
C	4.604287	-0.350067	-0.044506
C	4.319259	0.662317	-1.164699
C	3.340028	1.113926	-0.062308
O	4.322835	0.691204	0.917797
H	0.423714	-0.907677	0.019178
H	0.48659	0.958632	-0.046362
H	3.202859	-1.905039	-0.813688
H	3.268343	-1.758379	0.972056
H	5.575625	-0.844948	0.091155
H	3.925195	0.314508	-2.13207
H	5.143941	1.377095	-1.287068
H	2.974821	2.142736	0.052839
