19

C	1.240704	-0.010684	1.355233
C	2.236747	0.024838	0.208374
C	2.787339	1.411147	-0.048173
O	3.691292	1.350656	-1.120185
C	4.264217	2.567366	-1.43379
C	5.440933	3.044464	-0.631821
C	5.622886	2.524694	-2.035398
H	0.857298	-1.027847	1.521758
H	0.374103	0.640861	1.158426
H	1.698606	0.327885	2.298859
H	1.770882	-0.338662	-0.722766
H	3.085213	-0.650089	0.40939
H	3.289633	1.802585	0.860865
H	1.959719	2.115504	-0.276906
H	3.555307	3.325983	-1.800085
H	5.771629	2.395303	0.183532
H	5.555466	4.115328	-0.442256
H	5.863282	3.228419	-2.836328
H	6.063314	1.53072	-2.1456
