15

C	3.082439	-1.058546	-0.740967
C	2.492352	0.058829	0.102341
C	3.263038	1.346914	-0.025244
O	3.257048	1.8242	-1.361935
C	3.137497	3.185141	-1.24701
C	2.802913	3.507886	0.003059
O	2.687717	2.373281	0.764265
H	2.501966	-1.985874	-0.631215
H	4.12126	-1.278046	-0.446742
H	3.087411	-0.780572	-1.805497
H	2.478496	-0.211629	1.170551
H	1.452266	0.273321	-0.190724
H	4.326336	1.215608	0.289147
H	3.278084	3.786943	-2.140798
H	2.576359	4.461164	0.47254
