16

N	0.434079	-0.05819	-0.215235
C	1.844002	-0.043586	0.088461
C	2.439124	1.33182	-0.01006
C	1.742329	2.466834	-0.121949
O	3.799812	1.245183	0.016099
C	4.532092	2.325215	0.38433
C	5.766382	2.529308	-0.07108
H	0.031277	-0.967933	-0.009467
H	0.282611	0.119411	-1.206276
H	2.478074	-0.70399	-0.541329
H	1.994106	-0.397866	1.123977
H	0.654441	2.404114	-0.098171
H	2.222173	3.438808	-0.243662
H	4.046314	2.983722	1.115939
H	6.212474	1.859084	-0.809099
H	6.35118	3.368236	0.306891
