11

N	0.934759	0.01349	0.16849
C	2.274312	0.041094	0.068405
C	2.889646	-1.319008	-0.041476
O	2.210637	-2.314631	-0.031419
C	3.063262	1.157574	0.059501
C	4.474377	1.107568	-0.050194
N	5.633958	1.099189	-0.138159
H	0.379614	0.849251	0.266219
H	0.491177	-0.897739	0.17163
H	3.998403	-1.347036	-0.131434
H	2.616315	2.15283	0.140077
