19

C	0.704953	1.072897	-0.327128
C	-0.486235	0.213656	-0.01349
C	0.880962	-0.399412	-0.098535
C	1.598587	-0.920981	1.118406
C	1.478141	-0.210688	2.485208
C	1.486065	-1.597273	3.158283
C	1.09763	-2.212731	1.801653
H	0.818209	1.466922	-1.340777
H	1.057582	1.749765	0.457068
H	-1.199018	-0.004204	-0.813606
H	-0.949359	0.322372	0.972018
H	1.065456	-0.999132	-0.997909
H	2.669301	-1.03178	0.872524
H	0.501487	0.28571	2.604508
H	2.264147	0.508573	2.760801
H	2.501654	-1.893688	3.46287
H	0.80963	-1.757327	4.01113
H	1.55813	-3.168328	1.507847
H	0.004296	-2.304931	1.69726
