15

C	1.000861	0.006019	0.098373
C	2.485743	0.005741	-0.05397
C	3.175368	1.14283	-0.208062
O	4.527072	1.232555	-0.354945
C	5.218599	0.065016	-0.346249
C	4.665171	-1.141304	-0.201117
C	3.188056	-1.326788	-0.028479
H	0.576533	1.019928	0.071798
H	0.704611	-0.464106	1.052739
H	0.523918	-0.586668	-0.701898
H	2.709669	2.130329	-0.232737
H	6.289289	0.23504	-0.475357
H	5.322853	-2.013259	-0.211186
H	2.775098	-1.987009	-0.818729
H	2.961529	-1.856363	0.920031
