11

C	0.980424	-0.035404	-0.007185
C	2.453932	0.115023	0.000556
C	3.295127	1.19076	0.00325
C	4.583595	0.592433	0.0097
N	4.512867	-0.712167	0.0114
O	3.18167	-1.008485	0.005774
H	0.496484	0.948761	-0.001201
H	0.641611	-0.601218	0.874348
H	0.649127	-0.586095	-0.901168
H	3.031941	2.244973	0.000741
H	5.562653	1.07178	0.013575
