16

C	1.303854	-0.460092	-0.045149
C	2.803996	-0.248565	0.083134
C	3.202772	1.215859	-0.023105
C	4.706407	1.476004	0.078181
O	5.047102	2.810121	-0.166931
C	5.233544	1.017303	1.383158
N	5.62397	0.68005	2.419139
H	1.041178	-1.525304	0.033361
H	0.92703	-0.094237	-1.013896
H	0.755916	0.076332	0.745714
H	3.330356	-0.823802	-0.698767
H	3.155961	-0.655686	1.046614
H	2.691604	1.80348	0.761289
H	2.88253	1.636244	-0.990934
H	5.224157	0.883535	-0.695427
H	4.590952	3.362877	0.478711
