16

C	0.885379	0.577123	-0.69863
C	1.590261	1.915057	-0.597018
N	2.774195	1.811971	0.233675
C	4.002063	1.423953	-0.385641
C	3.787365	2.832394	0.08051
C	4.432242	3.310898	1.331414
O	4.978519	4.375312	1.445811
H	-0.032364	0.662956	-1.29869
H	0.61637	0.205654	0.300827
H	1.533551	-0.174609	-1.175926
H	0.925665	2.663331	-0.135157
H	1.838582	2.292892	-1.613625
H	4.025952	1.288688	-1.476449
H	4.650317	0.743716	0.178702
H	3.666176	3.597999	-0.698098
H	4.369897	2.573945	2.175775
