16

C	0.958419	-0.02521	-0.009241
C	2.411546	0.01008	0.008137
C	3.624938	0.040778	0.025718
C	5.06588	0.057043	0.060158
N	5.84443	-0.641396	-0.967836
C	5.835159	0.808223	-0.974973
C	7.124322	1.506288	-0.652118
H	0.530575	0.989715	-0.008058
H	0.563681	-0.556767	0.871197
H	0.584615	-0.544081	-0.906238
H	5.501903	-0.01645	1.06503
H	5.215987	-1.015665	-1.677947
H	5.213294	1.303206	-1.73316
H	7.668502	0.962734	0.13388
H	6.940952	2.536066	-0.308889
H	7.773067	1.551857	-1.541337
