15

O	1.130104	0.250151	-0.45911
C	2.397449	0.091483	0.108556
C	3.02242	1.453719	0.294387
N	2.445098	2.561768	0.088902
N	4.324696	1.375874	0.799952
C	5.444208	1.193172	-0.102985
C	5.225469	2.477371	0.612299
H	0.71258	-0.611411	-0.537199
H	3.073978	-0.518081	-0.525736
H	2.370793	-0.396692	1.10272
H	1.48727	2.376209	-0.222635
H	5.231957	1.185915	-1.179994
H	6.221346	0.49229	0.222674
H	5.846054	2.734107	1.477022
H	4.843079	3.325275	0.033399
