15

C	0.960601	-0.099248	0.117197
C	2.439777	0.204237	-0.050801
N	2.85095	1.37186	0.733126
C	3.885584	1.047012	1.391303
N	4.411155	-0.264845	1.239894
C	3.491357	-1.259668	1.809781
C	3.410753	-0.898332	0.378736
H	0.663023	-0.952909	-0.509905
H	0.356899	0.773202	-0.171185
H	0.72609	-0.342146	1.164649
H	2.62715	0.438259	-1.115172
H	4.406684	1.734025	2.068303
H	3.954401	-2.205044	2.108434
H	2.710547	-0.892139	2.486436
H	3.78703	-1.599845	-0.372055
