17

C	2.234668	-0.633455	-1.194923
O	1.88459	0.485193	-0.429369
C	2.982231	1.213485	-0.003369
C	3.512248	2.29165	-0.940538
N	2.952179	2.516079	-2.238138
C	2.738415	2.671715	0.279708
N	3.353386	3.395255	1.346631
H	1.305496	-1.128912	-1.510451
H	2.837445	-1.357678	-0.612962
H	2.812305	-0.355162	-2.096087
H	3.691146	0.670236	0.64359
H	4.590933	2.487221	-0.896078
H	1.969454	2.248266	-2.233706
H	3.40738	1.916919	-2.924758
H	1.702176	2.974115	0.074282
H	4.365306	3.305032	1.321692
H	3.042503	3.043901	2.250426
