17

C	0.957309	-0.129283	-0.179495
N	2.389795	-0.242352	-0.077416
C	2.952499	-1.551079	0.10661
N	3.060315	0.673772	-0.780769
C	4.278634	0.545968	-1.143551
C	4.898702	1.705616	-1.871014
O	3.998904	2.741158	-2.075521
H	0.691012	0.935449	-0.192704
H	0.47837	-0.600815	0.69179
H	0.550291	-0.598955	-1.098069
H	2.260119	-2.161661	0.700836
H	3.90664	-1.491654	0.655724
H	3.144944	-2.070995	-0.85581
H	4.900585	-0.338659	-0.943175
H	5.305788	1.336391	-2.835886
H	5.783505	2.048926	-1.29146
H	3.185018	2.451022	-1.629901
