15

C	0.943185	-0.5273	0.247508
C	2.324994	-0.085861	-0.20787
C	2.948404	-1.049345	-1.212797
N	2.257039	1.26527	-0.740756
C	3.30252	2.124214	-0.679176
O	4.364949	1.888161	-0.149065
H	0.529183	0.167804	0.993469
H	0.985787	-1.530137	0.696716
H	0.244081	-0.579395	-0.604887
H	2.995452	-0.022694	0.664669
H	2.33199	-1.121824	-2.123514
H	3.04243	-2.058206	-0.782345
H	3.95234	-0.702457	-1.495588
H	1.439668	1.539128	-1.272398
H	3.075457	3.102553	-1.170806
