15

C	0.665624	0.3316	0.059017
C	2.135634	0.128111	0.092133
C	3.064936	1.055323	-0.184163
C	4.502292	0.735904	-0.118547
O	4.940026	-0.359349	0.182912
C	5.48499	1.840799	-0.444733
O	6.787015	1.396912	-0.352359
H	0.195964	-0.361898	-0.658582
H	0.390181	1.359621	-0.215884
H	0.220672	0.098581	1.041135
H	2.506867	-0.867986	0.366155
H	2.780272	2.075033	-0.467015
H	5.275249	2.686167	0.245806
H	5.238737	2.21811	-1.460248
H	6.70779	0.465993	-0.078078
