12

O	1.460956	0.551512	-1.659933
C	1.731502	0.660831	-0.488927
C	0.9944	-0.135298	0.515848
N	0.403725	-0.749298	1.299957
C	2.772944	1.558007	0.053576
C	3.99186	1.786755	-0.82129
C	2.99018	2.865151	-0.687247
H	2.905715	1.545707	1.137977
H	4.007507	1.225159	-1.759054
H	4.950441	1.877371	-0.304969
H	3.221447	3.738466	-0.072951
H	2.319624	3.041197	-1.532757
