12

C	0.892174	0.000697	0.002858
C	2.236615	0.000636	-0.000692
C	3.116748	1.177757	-0.002843
C	4.396615	0.735516	-0.00632
C	4.396559	-0.734484	-0.006537
C	3.116628	-1.176574	-0.003192
H	0.324901	0.93566	0.004507
H	0.324807	-0.93421	0.004226
H	2.769962	2.210967	-0.001761
H	5.294765	1.354992	-0.008628
H	5.294652	-1.354037	-0.009029
H	2.769705	-2.209739	-0.00242
