17

C	0.931051	-0.052589	-0.189801
C	2.445633	0.010924	0.005583
C	3.167285	-1.215957	-0.487523
C	4.108288	-0.932744	-1.392075
C	4.205085	0.540284	-1.662787
C	3.124556	1.131105	-0.776381
C	2.806911	2.424149	-0.700516
H	0.446531	0.869792	0.164515
H	0.495276	-0.896497	0.367979
H	0.682454	-0.179482	-1.254674
H	2.642289	0.147106	1.087378
H	2.922554	-2.219697	-0.130333
H	4.749391	-1.669901	-1.881344
H	5.203812	0.941381	-1.409283
H	4.043912	0.783747	-2.72862
H	3.331098	3.177035	-1.295684
H	2.011364	2.780426	-0.039574
