16

O	1.188904	0.093443	0.300319
C	2.561738	0.046336	0.138811
C	3.065272	-0.926482	-0.961015
C	4.58906	-0.770325	-0.889374
C	4.649586	0.78104	-0.8286
C	3.142737	1.060206	-0.883172
N	2.608927	0.124809	-1.90777
H	0.839931	0.144383	-0.60307
H	3.032052	-0.010973	1.133505
H	2.640303	-1.935548	-1.068595
H	5.023621	-1.258261	-0.003109
H	5.087541	-1.189353	-1.777393
H	5.181756	1.228596	-1.68252
H	5.117961	1.163319	0.09186
H	2.797713	2.104513	-0.910744
H	3.095307	0.140808	-2.807192
