15

N	1.060604	-0.087215	-0.144504
C	2.478274	-0.072802	0.02057
C	3.276853	-0.768304	-1.056043
N	2.654786	-1.427874	-2.157239
C	3.254293	0.74103	-1.005862
C	4.415086	1.492527	-0.621576
C	5.402119	2.117983	-0.295628
H	0.635734	0.760577	0.224431
H	0.647323	-0.873686	0.35229
H	2.906753	-0.066574	1.034688
H	4.219885	-1.224871	-0.7406
H	1.695873	-1.086049	-2.234687
H	2.5865	-2.425268	-1.960608
H	2.623203	1.204147	-1.774199
H	6.278094	2.66997	-0.010522
