18

C	0.980283	-0.089066	-0.054442
C	2.473413	0.076943	-0.012468
C	3.443586	-0.527345	-1.054281
N	4.505622	-0.39021	-0.008805
C	3.404678	-0.680631	0.962362
C	4.561777	1.081306	0.104452
C	3.058697	1.489413	0.106667
H	0.51106	0.312267	0.858255
H	0.697112	-1.149703	-0.141393
H	0.54646	0.448565	-0.912797
H	3.629786	0.017216	-1.995843
H	3.249718	-1.58899	-1.271285
H	3.205741	-1.762746	1.009135
H	3.553492	-0.28482	1.981886
H	5.089233	1.363748	1.02785
H	5.123484	1.49943	-0.744264
H	2.775552	2.130626	-0.743752
H	2.740077	1.994798	1.03275
