19

C	0.908543	1.194473	-0.068734
N	2.318015	1.005854	0.109241
C	3.252521	1.93477	-0.272121
N	3.016722	3.052337	-0.846899
C	4.687452	1.502521	-0.013686
C	5.113017	0.47772	-1.068526
C	5.635234	2.690215	0.026775
H	0.370453	0.308083	0.292688
H	0.647665	1.332277	-1.133252
H	0.524687	2.071914	0.485092
H	2.635237	0.207247	0.638895
H	2.016375	3.20432	-0.98923
H	4.704251	1.004203	0.974977
H	5.106947	0.94215	-2.066916
H	4.434901	-0.388812	-1.097484
H	6.130718	0.108713	-0.86876
H	5.601354	3.231965	-0.929035
H	6.667019	2.35537	0.214714
H	5.347239	3.403201	0.81262
