15

C	0.924682	0.166762	-0.00013
C	2.348698	-0.283133	0.06625
C	2.659451	-1.730196	-0.205094
N	3.235828	0.59463	0.353449
N	4.52774	0.229538	0.422664
C	5.491139	1.154033	0.725269
O	6.665622	0.893918	0.800721
H	0.855383	1.240389	0.216673
H	0.303846	-0.38732	0.72376
H	0.498079	-0.027985	-0.998739
H	1.748797	-2.297155	-0.436309
H	3.137578	-2.208739	0.667405
H	3.348333	-1.840281	-1.06091
H	4.844841	-0.725536	0.252642
H	5.043863	2.160915	0.890329
