16

N	1.447931	-0.495308	-0.686737
C	2.773429	-0.297798	-0.127736
C	3.099152	1.197999	-0.100216
N	2.091394	1.998525	0.576659
C	4.449841	1.534042	0.463212
C	5.364876	0.684326	0.932504
H	1.12435	-1.447386	-0.538631
H	1.460603	-0.34664	-1.694481
H	3.578059	-0.845846	-0.66027
H	2.771332	-0.671768	0.91107
H	3.113551	1.539421	-1.157786
H	2.127507	1.789344	1.575084
H	1.181222	1.659069	0.260295
H	4.650909	2.611867	0.495052
H	5.214521	-0.399389	0.938776
H	6.316863	1.046221	1.329514
