17

C	1.139153	-0.082879	0.26625
N	2.334244	0.144621	-0.486784
C	2.933163	1.263283	-0.42618
C	2.64093	2.513801	0.394805
C	3.584054	3.566222	-0.188892
C	4.744571	2.737105	-0.743573
N	4.075052	1.527569	-1.146248
H	1.281082	-0.931209	0.959625
H	0.313863	-0.377608	-0.405972
H	0.779995	0.7749	0.869715
H	2.87505	2.298666	1.451896
H	1.581173	2.802821	0.353365
H	3.085965	4.093137	-1.017632
H	3.908608	4.320811	0.541533
H	5.246207	3.229236	-1.592091
H	5.51394	2.55941	0.036917
H	4.55881	0.752435	-1.579915
