13

C	0.96782	0.008178	0.02247
C	2.494018	-0.032068	0.004118
C	3.046516	-0.775632	-1.225527
O	4.434994	-0.85763	-1.237881
C	3.074966	1.310896	0.042989
N	3.563742	2.360536	0.019512
H	0.590624	0.521511	0.917742
H	0.566476	-1.015928	0.020795
H	0.576677	0.533486	-0.861877
H	2.867945	-0.559825	0.898832
H	2.637381	-0.298838	-2.139652
H	2.65873	-1.806177	-1.198037
H	4.795181	0.02888	-1.361483
