15

C	0.727203	0.246666	0.145787
C	2.049211	0.172403	0.305009
C	3.020403	1.277267	0.072142
C	2.591884	2.760055	-0.04538
C	3.738214	3.181059	0.904332
C	3.922067	1.70625	1.241904
O	4.462085	1.109202	2.123504
H	0.084782	-0.613179	0.352277
H	0.235933	1.161438	-0.199723
H	2.500556	-0.764882	0.652143
H	3.700334	1.005495	-0.759697
H	1.603925	2.935133	0.404
H	2.602877	3.192482	-1.054031
H	4.623651	3.582469	0.38381
H	3.505814	3.841523	1.753154
