16

C	-0.438545	-1.547592	-0.329979
C	0.786818	-1.213193	0.526725
C	1.182406	0.2379	0.418702
N	1.038604	0.870286	-0.878404
C	0.10421	1.239085	0.196893
C	-1.29005	0.74812	0.076709
C	-1.542489	-0.544633	-0.164102
H	-0.797685	-2.560853	-0.091334
H	-0.134918	-1.565512	-1.390852
H	1.631737	-1.861755	0.242732
H	0.566495	-1.421673	1.588387
H	2.01977	0.54724	1.058429
H	1.736808	1.600705	-1.007122
H	0.23151	2.227145	0.65386
H	-2.106507	1.466817	0.191254
H	-2.577055	-0.887385	-0.267487
