16

N	1.017504	-0.308054	-0.272792
C	2.29106	0.235921	0.10242
C	3.596599	-0.447461	-0.415049
C	4.26047	0.938909	-0.17792
C	2.884613	1.430202	-0.711686
C	2.913961	0.844448	-2.122694
C	3.382855	-0.392691	-1.927207
H	0.269785	0.315543	0.025111
H	0.859973	-1.191687	0.207806
H	2.392865	0.446519	1.188397
H	3.985653	-1.372292	0.03395
H	4.437693	1.174034	0.88419
H	5.144769	1.178119	-0.785369
H	2.53205	2.461808	-0.572065
H	2.591359	1.333363	-3.041118
H	3.55288	-1.197751	-2.641423
