19

C	2.005455	-1.609725	-0.333699
C	1.699654	-0.128632	-0.169559
C	2.913763	0.720141	0.141765
C	3.683378	0.415277	1.40944
C	2.844714	0.552427	2.672365
C	3.600385	1.404133	-0.959875
O	2.72555	2.107086	-0.103675
H	1.103304	-2.17064	-0.619922
H	2.384614	-2.055291	0.599243
H	2.765244	-1.777217	-1.11406
H	0.953376	0.01898	0.629997
H	1.239388	0.275713	-1.084913
H	4.536893	1.109586	1.457363
H	4.111661	-0.599101	1.338229
H	2.379664	1.549113	2.717983
H	3.463224	0.427126	3.573636
H	2.039504	-0.197506	2.721274
H	3.247799	1.260716	-1.990853
H	4.666261	1.654235	-0.867181
