17

C	1.099845	-0.08548	0.161863
C	2.583504	-0.135278	-0.081415
C	3.123283	-0.67655	-1.353875
O	2.209823	-1.1429	-2.278918
C	3.226402	0.817067	-1.073905
C	4.534348	1.457264	-0.823874
C	5.523545	0.978211	-0.060803
H	0.838794	0.741347	0.840557
H	0.746062	-1.023927	0.617366
H	0.553546	0.046388	-0.782068
H	3.193892	-0.333511	0.80745
H	4.078252	-1.221994	-1.303538
H	2.580055	-1.005282	-3.157134
H	2.509981	1.414396	-1.647724
H	4.695515	2.410578	-1.340197
H	5.435236	0.034787	0.487487
H	6.467689	1.517895	0.043468
