17

C	2.124458	-0.633861	1.177217
C	2.676909	-0.18521	-0.172899
C	3.543675	1.04485	-0.075597
N	3.254081	2.225873	-0.498957
N	4.722392	0.937753	0.611045
C	5.574925	-0.214362	0.630825
O	5.465727	2.100772	0.598715
H	1.464616	-1.506787	1.060698
H	1.542723	0.174879	1.644897
H	2.928307	-0.904358	1.877446
H	1.850103	0.052435	-0.858891
H	3.239505	-1.005164	-0.649383
H	2.334337	2.2764	-0.926919
H	4.97707	-1.126649	0.747009
H	6.250946	-0.13623	1.494525
H	6.189643	-0.289218	-0.285832
H	4.836334	2.700047	0.118299
