19

C	1.190173	0.828815	-1.277159
O	2.576901	0.870486	-1.174075
C	3.036603	1.362663	0.050303
C	4.542215	1.394166	0.033817
C	5.256445	2.387639	-0.904147
C	6.285558	2.641881	0.214886
C	5.280101	2.046501	1.220736
H	0.933132	0.428155	-2.268255
H	0.731363	1.834186	-1.178826
H	0.731536	0.175284	-0.506816
H	2.67606	0.732149	0.892458
H	2.645127	2.388331	0.233332
H	4.915264	0.371055	-0.141436
H	4.627771	3.273341	-1.091545
H	5.616772	2.010225	-1.871945
H	7.174549	2.001996	0.10432
H	6.624343	3.675627	0.379481
H	5.663473	1.388245	2.015422
H	4.663645	2.831626	1.68965
