14

C	0.965087	-0.070237	0.001185
C	2.483022	0.012464	-0.003819
C	3.014376	1.439833	0.015106
C	4.532312	1.52253	0.010104
H	0.612533	-1.112594	-0.012498
H	0.534157	0.437894	-0.876947
H	0.541391	0.412041	0.897281
H	2.881669	-0.509196	-0.892844
H	2.888803	-0.53529	0.866051
H	2.615738	1.961495	0.904135
H	2.608595	1.987587	-0.854763
H	4.96324	1.014396	0.888236
H	4.884872	2.564884	0.023789
H	4.956005	1.040254	-0.885995
