14

C	0.83674	-0.274797	-0.433311
C	2.321472	-0.249662	-0.364223
C	3.05709	0.672357	0.284838
C	4.500423	0.651118	0.321933
C	5.252749	1.570222	0.967518
C	6.673964	1.527988	0.989736
N	7.834795	1.50428	1.015076
H	0.440191	-1.218558	-0.021791
H	0.491146	-0.228522	-1.479772
H	0.382264	0.560443	0.118613
H	2.851445	-1.055174	-0.889768
H	2.553304	1.488163	0.817894
H	5.004766	-0.164365	-0.208867
H	4.781262	2.398635	1.507154
