15

C	2.892014	-1.069027	0.624357
N	2.867193	-0.151407	-0.501041
C	3.312628	1.150788	-0.247313
C	2.657741	2.316416	0.109037
C	3.641207	3.339367	0.212945
C	4.862742	2.76619	-0.06785
N	4.646779	1.444889	-0.348087
H	2.570364	-2.069044	0.295076
H	2.253935	-0.756607	1.474892
H	3.920159	-1.165207	1.004352
H	1.951622	-0.132033	-0.93741
H	1.587433	2.409703	0.284748
H	3.474319	4.381736	0.477873
H	5.861812	3.19527	-0.089148
H	5.338653	0.777786	-0.659391
