13

C	0.924714	0.082055	0.002797
C	2.262323	0.016094	0.070047
O	2.974476	1.123303	0.460648
C	4.277707	1.149713	-0.022454
O	5.030532	0.032564	0.380321
C	4.396939	-1.124485	0.10358
C	3.073816	-1.174424	-0.138822
H	0.408411	1.020003	0.21075
H	0.343761	-0.81018	-0.229927
H	4.767067	2.038857	0.391857
H	4.274429	1.180471	-1.131314
H	5.062926	-1.990481	0.099866
H	2.593449	-2.116319	-0.40189
