17

O	1.056598	0.062147	-0.191466
C	2.439852	-0.038716	0.004493
C	2.945846	1.131441	0.838632
C	4.324728	0.671957	1.310566
C	4.214192	-0.83957	1.415602
C	5.135705	-1.654846	1.931005
C	2.889651	-1.254807	0.822537
H	0.778171	-0.663335	-0.758787
H	2.979656	-0.039995	-0.966691
H	2.254548	1.248405	1.690161
H	2.952936	2.080685	0.284073
H	5.093944	0.928021	0.560791
H	4.641506	1.138067	2.255825
H	4.992966	-2.739335	1.948616
H	6.065688	-1.265906	2.355803
H	2.943948	-2.19349	0.249017
H	2.142534	-1.396444	1.624864
