11

C	0.9024	0.048994	-0.003743
C	2.11537	0.02657	-0.001789
C	3.534737	-0.01026	0.001355
C	4.38984	1.063363	0.002785
O	5.664662	0.648825	0.005906
C	5.658899	-0.701628	0.006441
C	4.384141	-1.173309	0.003751
H	-0.171835	0.067579	-0.005362
H	4.216877	2.136458	0.001918
H	6.631455	-1.186877	0.008884
H	4.063373	-2.211825	0.003483
