15

C	0.880084	-0.006584	0.923183
C	0.307305	-1.072305	-0.031839
C	0.710477	-0.030423	-1.09419
N	0.368043	1.000855	-0.061628
C	-1.084967	0.766383	0.062898
C	-1.190712	-0.790504	0.091279
H	1.979653	0.017352	0.959835
H	0.470199	0.0785	1.943717
H	0.638649	-2.121851	-0.047129
H	0.136191	0.031818	-2.034032
H	1.788129	-0.009478	-1.314252
H	-1.461625	1.243325	0.980027
H	-1.609531	1.221117	-0.790654
H	-1.771345	-1.204492	-0.747718
H	-1.619819	-1.181713	1.026912
