15

C	1.544316	0.388506	0.430386
C	2.873866	-0.03563	-0.162239
N	3.835592	1.031463	-0.087004
C	5.119612	0.911414	-0.551496
N	5.663537	-0.111205	-1.097922
C	5.905005	2.119357	-0.374451
C	6.526106	3.146952	-0.216245
H	0.814019	-0.431035	0.37039
H	1.127865	1.25222	-0.111246
H	1.654728	0.666139	1.490302
H	2.733472	-0.345913	-1.215796
H	3.256237	-0.926823	0.371941
H	3.557088	1.916403	0.31334
H	5.003627	-0.889167	-1.164737
H	7.10004	4.046111	-0.084781
