16

C	0.994057	-0.207213	-0.17757
C	2.490012	0.072576	0.024871
C	3.294875	-0.75916	-0.87684
N	3.918613	-1.407791	-1.605006
C	2.850374	1.542315	-0.142902
C	2.685445	2.129998	-1.511397
C	3.275505	2.248512	0.908985
H	0.408892	0.414586	0.514326
H	0.765297	-1.264392	0.018997
H	0.677542	0.020916	-1.205071
H	2.76403	-0.228584	1.049554
H	1.635453	2.087097	-1.844819
H	3.278412	1.569718	-2.252787
H	3.005255	3.180289	-1.535024
H	3.398651	1.792999	1.89557
H	3.520557	3.310064	0.816843
