13

C	0.946359	-0.039929	0.005279
C	2.465635	-0.012229	0.004108
C	3.035178	1.394782	0.008718
C	4.535737	1.45874	0.006998
O	5.262334	0.501308	0.001114
H	0.56312	-1.071051	0.002249
H	0.532673	0.469671	-0.880329
H	0.534129	0.463886	0.894875
H	2.859803	-0.550942	-0.873458
H	2.861173	-0.557296	0.877133
H	2.685527	1.975853	0.884416
H	2.683764	1.98205	-0.862165
H	4.961408	2.498207	0.011594
