15

C	0.921798	0.10463	0.075857
C	2.431204	0.043921	0.039238
C	3.229912	1.081482	0.868163
C	3.771777	-0.113418	1.66889
O	4.533585	-0.294795	2.580302
N	3.02586	-0.971777	0.907285
N	2.874631	-2.331628	0.886107
H	0.497032	-0.840349	-0.296085
H	0.542922	0.922271	-0.555733
H	0.561387	0.260892	1.104909
H	2.791302	-0.043453	-1.002149
H	2.616311	1.77339	1.463154
H	4.002004	1.642634	0.323606
H	2.518584	-2.661165	1.782516
H	3.772862	-2.785546	0.72156
