13

O	1.672083	-0.559014	-0.736552
C	2.039266	0.179146	0.134279
C	3.125311	1.228682	-0.022867
C	3.559315	1.469563	-1.473283
C	3.490416	2.970404	-1.537576
N	2.975351	3.509403	-0.500464
N	2.584496	2.537338	0.374741
H	1.576218	0.150512	1.15459
H	3.97657	0.925509	0.621365
H	2.849853	0.987856	-2.169098
H	4.557149	1.070816	-1.7084
H	3.804082	3.586716	-2.382999
H	2.69556	2.82558	1.340266
