15

C	2.628519	-1.084555	-0.732007
C	2.549457	-0.03943	0.337084
O	1.909481	-0.18178	1.354696
C	3.308329	1.280801	0.140387
O	3.135166	2.077937	1.261005
C	4.765094	1.024275	-0.129919
C	5.35981	1.169572	-1.313603
H	2.591565	-0.636372	-1.735617
H	1.820459	-1.815027	-0.59968
H	3.598744	-1.600846	-0.65343
H	2.857104	1.74377	-0.765759
H	2.522866	1.575733	1.829349
H	5.334628	0.697803	0.748568
H	4.805865	1.520532	-2.190597
H	6.421942	0.952655	-1.452226
