18

O	2.024826	-0.230597	-1.40109
C	2.323532	0.07028	-0.063511
C	3.071185	1.383979	-0.023108
C	2.282154	2.585989	-0.54822
C	2.988945	3.750323	0.126927
N	3.198071	3.23689	1.466109
C	3.494629	1.812382	1.395928
H	1.51797	-1.046968	-1.426018
H	2.94499	-0.72037	0.407391
H	1.40481	0.166372	0.554242
H	3.971188	1.266267	-0.651022
H	1.23831	2.533519	-0.195552
H	2.269279	2.640756	-1.645484
H	3.928971	3.986961	-0.421725
H	2.382434	4.671362	0.143403
H	3.866498	3.767035	2.01334
H	4.562536	1.573068	1.565443
H	2.925191	1.258503	2.167326
