19

C	1.570137	-0.406756	-0.10495
O	2.862358	0.109672	-0.099492
C	2.908323	1.505303	-0.065718
C	4.365552	1.936658	-0.056241
C	4.559917	3.428856	-0.007786
C	4.130168	4.20628	-1.218389
C	5.096108	4.027806	1.062561
H	1.641215	-1.50349	-0.136443
H	0.987047	-0.06892	-0.98635
H	0.99918	-0.119087	0.80166
H	2.39431	1.899505	0.837141
H	2.374979	1.93262	-0.941346
H	4.842669	1.524036	-0.962869
H	4.85344	1.45702	0.805841
H	4.613088	3.811505	-2.127816
H	4.381886	5.272446	-1.129764
H	3.042612	4.129635	-1.384511
H	5.410367	3.454666	1.939337
H	5.245136	5.111046	1.096286
