18

C	1.123334	0.293441	0.553863
C	2.353538	-0.213363	-0.173048
N	2.097682	-1.480421	-0.855914
C	3.03786	-1.575075	-1.96406
C	3.353592	-0.146072	-2.384294
C	2.177583	0.772206	-2.544154
C	2.918659	0.724406	-1.240157
H	1.346798	1.213549	1.11362
H	0.752733	-0.460437	1.265072
H	0.315884	0.524277	-0.160685
H	3.156933	-0.376305	0.571706
H	1.14245	-1.490567	-1.20457
H	3.971325	-2.066072	-1.633053
H	2.617725	-2.195601	-2.772797
H	4.272066	0.057713	-2.942148
H	2.307943	1.659812	-3.167903
H	1.173996	0.334955	-2.594931
H	3.504488	1.592105	-0.923397
