19

C	2.287306	-0.47291	1.402743
C	2.225752	0.194916	0.029429
C	2.89791	1.545447	-0.005114
C	2.173099	2.679095	0.015074
C	4.360963	1.621593	-0.030708
C	5.216865	0.591249	-0.128277
C	6.701798	0.716592	-0.167752
H	1.800522	-1.459925	1.385372
H	1.77615	0.144613	2.156801
H	3.325041	-0.612282	1.740114
H	1.173354	0.313659	-0.272334
H	2.685569	-0.464741	-0.726598
H	1.07962	2.657626	0.025684
H	2.652638	3.662149	0.019489
H	4.778686	2.634983	0.024433
H	4.818246	-0.428321	-0.189581
H	7.026812	1.76561	-0.107098
H	7.114342	0.283829	-1.095343
H	7.17197	0.164008	0.663675
