15

O	2.653245	-1.094803	1.089587
C	2.352894	-0.279682	-0.013525
C	3.326875	0.887738	-0.030622
C	4.737722	0.454151	-0.298573
C	5.549326	-0.099139	0.615449
C	5.23583	0.576965	-1.686888
O	4.586346	1.008089	-2.608194
H	2.160163	-1.916134	1.010774
H	1.320453	0.119908	0.044464
H	2.434012	-0.832346	-0.970663
H	3.262727	1.401785	0.940982
H	3.01704	1.592753	-0.816774
H	5.227642	-0.251181	1.648151
H	6.557466	-0.427966	0.340653
H	6.291181	0.228024	-1.835041
