17

O	2.610972	-1.043278	0.393006
C	2.437237	0.07494	-0.449512
C	3.044946	1.26226	0.282679
O	2.413643	1.412902	1.528401
C	4.545362	1.1265	0.413185
C	5.445586	1.702365	-0.640538
C	5.367424	2.336877	0.71814
H	2.116395	-1.786694	0.038674
H	1.364591	0.280747	-0.626587
H	2.933489	-0.061905	-1.4296
H	2.825653	2.175441	-0.298843
H	2.401133	0.527578	1.916199
H	4.856997	0.178932	0.865503
H	4.981859	2.230688	-1.480053
H	6.350043	1.151285	-0.910993
H	6.220825	2.231134	1.392959
H	4.840283	3.290986	0.811409
