17

C	0.939116	-0.114826	0.610621
N	2.028437	-0.196862	-0.330704
C	2.69041	-1.482654	-0.464928
C	2.324472	-2.189387	-1.762441
O	2.624997	-1.420277	-2.892244
N	2.657895	0.964066	-0.545194
C	3.740722	1.051141	-1.220131
H	0.474829	0.875255	0.522333
H	1.271407	-0.254857	1.658997
H	0.1811	-0.880529	0.383717
H	2.411977	-2.116769	0.394631
H	3.783008	-1.332097	-0.411349
H	1.250774	-2.467542	-1.730654
H	2.8954	-3.128501	-1.844474
H	2.136046	-0.591938	-2.810015
H	4.162349	2.053139	-1.341392
H	4.244931	0.208807	-1.714844
