13

C	1.031423	0.244931	0.578651
C	2.227776	0.164783	-0.002338
C	3.300293	1.185259	0.121701
O	3.566597	1.998932	-0.997661
C	3.003198	2.629923	0.134729
C	3.91611	3.54059	0.882984
O	3.536085	4.416252	1.611206
H	0.28769	-0.5475	0.459169
H	0.751152	1.101817	1.199158
H	2.488958	-0.711915	-0.607478
H	4.210417	0.844836	0.642337
H	1.961586	2.964838	0.048805
H	5.003904	3.325034	0.709246
