17

C	3.214104	-1.167361	-0.494567
C	2.496368	0.014253	0.138456
C	3.258562	1.321432	0.00322
C	3.438364	1.856366	-1.425232
C	3.36026	3.336873	-1.162807
N	2.871396	3.612791	-0.012941
N	2.556552	2.448158	0.625497
H	2.651167	-2.101784	-0.350961
H	4.214688	-1.311977	-0.055993
H	3.347404	-1.024223	-1.578603
H	2.323925	-0.185042	1.210259
H	1.498519	0.151781	-0.31061
H	4.265561	1.20137	0.461281
H	2.599621	1.539878	-2.077203
H	4.370812	1.530143	-1.907778
H	3.608078	4.133614	-1.867475
H	2.629827	2.538059	1.633377
