17

C	0.953664	-0.687583	0.479964
N	2.117005	-0.091262	-0.1356
C	2.940638	-1.069346	-0.805187
C	1.805457	1.064406	-0.958943
C	1.492826	2.265322	-0.072518
O	2.476363	2.396845	0.906712
H	0.397594	0.059689	1.065176
H	1.261076	-1.4858	1.17251
H	0.252804	-1.129669	-0.262829
H	3.240219	-1.858157	-0.097524
H	3.857501	-0.596486	-1.187279
H	2.427444	-1.561457	-1.660978
H	0.977925	0.870485	-1.67688
H	2.704259	1.299593	-1.551399
H	0.479297	2.157828	0.3709
H	1.463622	3.178959	-0.690414
H	2.752905	1.479004	1.073638
