17

C	0.89619	0.58	-0.045172
C	2.352132	0.380983	-0.297784
C	3.333549	1.146016	0.199499
C	4.774525	0.9266	-0.023695
C	5.312636	-0.310363	-0.012195
C	5.638723	2.093009	-0.247596
C	5.231789	3.361128	-0.391061
H	0.344431	0.728937	-0.988486
H	0.707496	1.446816	0.605593
H	0.452613	-0.309773	0.434056
H	2.627057	-0.455494	-0.953538
H	3.062369	2.013577	0.814662
H	4.705187	-1.193379	0.198152
H	6.37764	-0.464742	-0.207353
H	6.71181	1.874709	-0.304512
H	4.174385	3.638655	-0.361799
H	5.949738	4.168221	-0.554842
