16

O	1.398339	0.134814	0.960482
C	2.394058	0.051252	0.269249
C	3.059151	-1.282502	-0.021137
C	3.983523	-1.283361	-1.230921
C	4.904148	-0.073745	-1.176858
C	4.084923	1.204379	-1.206423
N	3.007971	1.159197	-0.240055
H	2.252289	-2.024855	-0.100103
H	3.62389	-1.541784	0.891878
H	4.561939	-2.219405	-1.271022
H	3.386337	-1.245815	-2.159436
H	5.502467	-0.107835	-0.249637
H	5.613752	-0.067791	-2.018965
H	4.725366	2.07454	-0.987762
H	3.683131	1.356879	-2.228136
H	2.510656	2.019492	-0.035772
