12

C	0.988243	0.071362	-0.006262
C	2.46496	0.044718	-0.001768
N	3.244184	1.057073	0.001719
C	4.590361	0.544361	0.004623
C	4.680462	-0.79583	0.002922
C	3.27694	-1.269967	-0.001419
O	2.819802	-2.382838	-0.003638
H	0.618598	1.103884	-0.000385
H	0.595695	-0.471895	0.868724
H	0.601723	-0.45873	-0.892046
H	5.406526	1.269542	0.007975
H	5.566267	-1.426631	0.004575
