12

O	0.917696	-0.166564	0.006012
C	2.241197	-0.056121	-0.000561
C	2.880474	1.137125	-0.001365
C	2.365196	2.491289	0.004113
C	3.473282	3.282298	0.000672
N	4.671186	2.553645	-0.007019
C	4.331494	1.302835	-0.008839
H	0.654122	-1.092685	0.005275
H	2.82128	-0.988551	-0.005693
H	1.319247	2.790136	0.010113
H	3.510336	4.373535	0.003233
H	5.06779	0.492319	-0.014591
