17

C	3.150937	-1.144922	-0.534676
C	2.469752	0.054494	0.106097
C	3.325641	1.311886	0.068739
C	3.601515	1.881173	-1.347349
N	3.488679	3.332065	-1.249424
C	2.976594	3.5595	-0.105189
N	2.678252	2.468598	0.681299
H	2.523022	-2.045921	-0.46851
H	4.110173	-1.371618	-0.041673
H	3.363001	-0.967223	-1.600695
H	2.217551	-0.177285	1.155303
H	1.513124	0.274973	-0.397584
H	4.287855	1.100046	0.581059
H	2.844667	1.509913	-2.065821
H	4.584517	1.586179	-1.745138
H	2.732233	4.565597	0.256869
H	2.665677	2.563796	1.689372
