19

N	1.326533	0.268319	-1.333817
C	2.100273	0.143805	-0.114748
C	3.219063	1.168013	-0.007235
C	4.064627	1.010417	1.236694
N	3.25306	1.155572	2.430432
C	3.893847	1.668528	-1.250342
C	2.958173	2.566059	-0.492083
H	0.411342	-0.157984	-1.224708
H	1.779649	-0.216595	-2.104303
H	2.549385	-0.862889	0.030425
H	1.437236	0.298852	0.750326
H	4.918633	1.719412	1.171656
H	4.507734	-0.001935	1.242191
H	2.879603	2.101981	2.479629
H	3.809479	1.014851	3.270061
H	3.544983	1.295771	-2.216639
H	4.968102	1.873285	-1.206594
H	3.384259	3.402153	0.071725
H	1.980927	2.750216	-0.9458
