16

C	1.02712	0.010039	0.267592
C	2.510084	-0.068519	0.002753
C	3.129447	-1.231279	-0.263762
C	3.216283	1.176749	0.028406
C	3.696351	2.285184	0.133278
C	4.339665	3.597703	0.178277
N	3.609208	4.57888	-0.596019
H	0.795462	0.835578	0.954776
H	0.647712	-0.92806	0.696294
H	0.479181	0.188767	-0.671838
H	2.566805	-2.167424	-0.2611
H	4.197286	-1.265075	-0.486122
H	5.391593	3.460897	-0.149931
H	4.395974	3.920745	1.231197
H	3.635597	4.368412	-1.590368
H	4.001271	5.508464	-0.470222
