17

C	2.273056	0.856825	2.062264
C	3.074651	0.230218	0.932483
N	3.631727	1.189525	-0.005189
O	2.605967	1.862961	-0.664327
C	4.684509	2.042906	0.367322
C	5.742822	1.40195	1.22094
N	4.818649	3.246329	-0.020229
H	1.823039	0.081202	2.70003
H	1.465616	1.480904	1.653093
H	2.909166	1.495611	2.694922
H	2.441612	-0.455226	0.346455
H	3.9048	-0.377962	1.319647
H	2.657543	1.542126	-1.573743
H	5.382662	1.218634	2.245357
H	6.59209	2.092964	1.270552
H	6.07543	0.440645	0.800764
H	3.99213	3.517305	-0.561081
