14

C	1.005812	0.044206	-0.230258
C	2.314462	-0.118746	0.014242
C	2.815741	-1.438614	0.453406
O	3.967846	-1.667373	0.729593
C	3.3231	0.961915	-0.132507
C	3.660863	1.536441	-1.463024
N	2.841721	2.273434	-0.522026
H	0.62114	1.021546	-0.533884
H	0.307149	-0.791501	-0.125216
H	2.031045	-2.236206	0.526353
H	4.155926	0.882144	0.576652
H	3.135953	1.163954	-2.349639
H	4.697518	1.845712	-1.638637
H	3.372255	3.008669	-0.059484
