17

C	1.119514	0.044217	0.403274
N	2.496425	-0.008624	-0.036823
C	2.821923	-1.268113	-0.70612
C	2.717752	-1.025189	-2.2106
N	3.834822	-0.355798	-2.852602
C	2.717116	0.448452	-2.392886
C	2.820237	1.05077	-0.992578
H	0.924723	1.00173	0.910476
H	0.92939	-0.754933	1.13598
H	0.374012	-0.06337	-0.417033
H	2.148348	-2.069451	-0.368098
H	3.84979	-1.586855	-0.446703
H	2.145695	-1.7148	-2.840918
H	4.628885	-0.276581	-2.213188
H	2.144103	0.963179	-3.171959
H	3.847432	1.424713	-0.818401
H	2.145193	1.909071	-0.860661
