17

C	0.961623	-0.015235	0.002384
C	2.47147	0.03007	-0.016286
O	2.874857	0.118432	-1.366672
C	3.100543	1.171451	0.807221
C	4.470795	0.595813	1.214903
O	4.506843	-0.737743	0.729426
C	3.169882	-1.167445	0.629654
H	0.576336	-0.109526	1.027951
H	0.605556	-0.868423	-0.593865
H	0.550223	0.901599	-0.444793
H	3.825562	-0.052985	-1.380953
H	2.486952	1.404522	1.690139
H	3.170037	2.077643	0.189668
H	5.323689	1.137556	0.778941
H	4.596812	0.602767	2.313882
H	3.13003	-2.067963	-0.000144
H	2.734961	-1.399723	1.624145
