17

C	1.689932	-0.075541	0.005879
C	0.82176	-1.221578	0.529436
C	-0.412358	-1.524654	-0.318975
C	-1.494077	-0.482829	-0.195841
C	-1.338064	0.819135	0.08611
O	-0.182213	1.514812	0.174992
C	0.894761	1.0556	-0.621567
H	2.390687	-0.442532	-0.76483
H	2.312408	0.316165	0.826792
H	1.441883	-2.127554	0.625386
H	0.476373	-0.978068	1.547684
H	-0.837123	-2.486799	0.010173
H	-0.125058	-1.689682	-1.375404
H	-2.53029	-0.823768	-0.276093
H	-2.203523	1.462151	0.27624
H	1.542416	1.929643	-0.790817
H	0.494445	0.745608	-1.604084
