18

N	1.400737	-1.675094	-0.317523
C	2.62514	-1.185425	0.288123
C	2.863515	0.267413	-0.093797
C	4.090515	0.871789	0.548359
O	5.231617	0.181805	0.086637
C	6.429631	0.560816	0.556973
C	6.707138	1.536021	1.43068
H	1.215351	-2.63179	-0.025061
H	1.50198	-1.706434	-1.331255
H	3.53501	-1.768164	0.035514
H	2.517701	-1.246188	1.386214
H	1.979642	0.861851	0.189388
H	2.962902	0.351548	-1.190781
H	4.03251	0.797215	1.652512
H	4.177609	1.945518	0.297027
H	7.220948	-0.056067	0.119324
H	5.94724	2.171346	1.887276
H	7.747234	1.711179	1.706971
