12

O	1.063313	-0.096933	0.169386
C	2.395495	0.012252	0.037024
C	3.033226	1.262853	-0.051815
C	4.414319	1.283759	-0.188098
C	5.113801	0.077168	-0.231366
C	4.374349	-1.099215	-0.132884
N	3.05159	-1.13501	-0.002205
H	0.671474	0.782361	0.188245
H	2.456944	2.1918	-0.015133
H	4.941648	2.238443	-0.260911
H	6.199381	0.048267	-0.340023
H	4.880732	-2.071587	-0.161722
