15

C	2.424473	-0.847753	-0.763531
O	2.085375	0.290474	-0.025235
C	3.134891	1.171399	0.136611
C	3.504445	2.09811	-0.996958
C	2.810879	2.629901	0.222818
N	3.476909	3.552979	1.087411
H	1.52161	-1.468121	-0.857952
H	3.211218	-1.446461	-0.263515
H	2.786243	-0.591008	-1.777888
H	3.963676	0.804072	0.765058
H	2.920183	2.025245	-1.918335
H	4.56086	2.344218	-1.146443
H	1.744996	2.846941	0.083218
H	4.48224	3.39749	1.080024
H	3.166022	3.428025	2.049467
