14

C	3.036602	-1.144566	0.507587
O	2.332683	0.046211	0.313026
C	3.074139	1.168353	0.187927
C	2.525522	2.419377	-0.028408
N	3.568506	3.306268	-0.103151
C	4.753189	2.660688	0.058033
C	4.489691	1.315603	0.244501
H	2.294904	-1.950966	0.582202
H	3.63366	-1.125539	1.438505
H	3.71739	-1.365411	-0.336117
H	1.487656	2.721375	-0.132868
H	3.466035	4.297207	-0.264638
H	5.70096	3.193467	0.029926
H	5.233493	0.539123	0.403976
