12

C	0.442354	1.410152	0.29553
C	1.134637	0.332397	-0.447006
C	1.045289	-1.086839	0.066004
C	-0.452795	-1.244082	0.101191
N	-1.118036	-0.251029	-0.339407
N	-0.237486	0.749152	-0.814362
H	0.719977	2.454087	0.120411
H	0.064827	1.189523	1.300484
H	1.916171	0.592978	-1.166184
H	1.498674	-1.255558	1.057414
H	1.516506	-1.802963	-0.628869
H	-0.977428	-2.123109	0.490475
