17

C	2.740066	-1.622973	-0.61628
C	2.050438	-0.327803	-0.24771
O	1.189885	-0.584789	0.835113
C	3.005049	0.79477	0.128408
C	3.975697	0.520277	1.244282
C	3.24394	1.876808	-0.828682
O	2.318367	2.04257	0.225894
H	3.440409	-1.473334	-1.451433
H	1.990532	-2.370087	-0.912729
H	3.291901	-2.026042	0.245564
H	1.470069	0.032598	-1.122597
H	0.772917	0.255688	1.061973
H	4.454141	1.454693	1.567468
H	4.75559	-0.189972	0.932117
H	3.435937	0.084579	2.098197
H	2.814583	1.821164	-1.838425
H	4.16673	2.466863	-0.74984
