14

O	1.029019	0.001369	-0.074748
C	2.414291	0.051694	-0.034475
C	2.99462	1.180322	0.804873
C	4.359089	0.625429	1.236252
N	4.114426	-0.801996	1.290425
C	2.995404	-1.190513	0.6365
O	2.49896	-2.295236	0.575485
H	0.806687	-0.943004	-0.07264
H	2.852187	0.085134	-1.05845
H	2.339027	1.308346	1.680675
H	3.068247	2.142701	0.280891
H	5.148037	0.873746	0.501951
H	4.681756	1.014987	2.213908
H	4.72065	-1.468089	1.752074
