19

C	0.96737	-0.079618	0.010406
C	2.486605	-0.02873	0.013281
C	3.045016	1.387824	0.003557
C	4.564695	1.447185	0.009034
C	5.121691	2.861327	0.004501
N	6.570906	2.850952	-0.036274
H	0.592812	-1.114325	0.016258
H	0.552207	0.418829	-0.880757
H	0.548429	0.430383	0.893275
H	2.880354	-0.577804	-0.860652
H	2.875787	-0.564706	0.897624
H	2.649627	1.940701	0.876114
H	2.660162	1.92436	-0.883735
H	4.974609	0.909403	-0.863335
H	4.94801	0.911089	0.898301
H	4.689783	3.415027	0.868761
H	4.753358	3.384318	-0.896144
H	6.940138	2.436589	0.818462
H	6.93579	3.800206	-0.067547
