15

C	1.031398	0.112652	-0.204593
C	2.536475	0.178019	-0.206186
O	3.198513	-0.81351	-0.455858
C	3.230299	1.465195	0.102393
C	2.557185	2.606579	0.30156
C	4.737855	1.373158	0.186692
O	5.325041	0.868988	-0.9753
H	0.612979	0.784229	-0.970165
H	0.621088	0.425235	0.767514
H	0.724238	-0.917383	-0.420941
H	1.466157	2.662352	0.260165
H	3.085403	3.540417	0.515677
H	4.990285	0.759403	1.077298
H	5.152841	2.37713	0.365283
H	4.965763	-0.024174	-1.07726
