15

C	0.960113	-0.062321	-0.225724
C	2.453741	0.014486	0.030468
O	3.053684	0.202752	-1.241246
C	3.003304	-1.237793	0.754089
O	3.97572	-0.79113	1.699572
C	3.786098	0.536857	1.842191
C	2.89734	1.082754	1.00229
H	0.399098	-0.190084	0.709827
H	0.73618	-0.903449	-0.900185
H	0.62523	0.861072	-0.719705
H	3.959626	0.492665	-1.085441
H	3.475284	-1.931198	0.043682
H	2.208204	-1.764916	1.307794
H	4.387795	1.005318	2.623765
H	2.620863	2.134087	0.939442
