16

O	1.734546	-0.271848	-1.192649
C	2.251679	0.084953	0.059245
C	3.226816	1.228055	-0.11879
O	4.345743	0.739264	-0.780834
C	2.541578	2.509978	-0.646883
N	2.369369	2.933196	0.742581
C	3.428445	2.032203	1.188409
H	1.167107	-1.038805	-1.078335
H	2.805582	-0.747178	0.538225
H	1.461674	0.423581	0.756856
H	4.917218	1.48209	-1.000335
H	1.62111	2.385967	-1.239797
H	3.266814	3.113598	-1.233604
H	2.484351	3.921633	0.946201
H	4.448611	2.469686	1.199129
H	3.257648	1.522807	2.153882
