17

C	2.409234	-1.105699	0.741521
O	3.492932	-0.693982	-0.042596
C	3.890655	0.591353	0.179486
C	5.197172	0.907868	0.253567
C	6.297299	-0.091348	0.164012
O	5.671603	2.170793	0.385749
C	4.755707	3.218673	0.499054
H	2.150865	-2.129991	0.439455
H	1.52153	-0.461187	0.585898
H	2.653541	-1.100482	1.820732
H	3.088745	1.336338	0.241654
H	5.890269	-1.107861	0.117544
H	6.964688	0.003132	1.035505
H	6.907718	0.092251	-0.735135
H	5.336109	4.144318	0.606755
H	4.103616	3.099806	1.384917
H	4.112807	3.301588	-0.397868
