14

O	2.095333	0.183702	-1.292611
C	2.282878	0.074914	0.092082
C	3.27324	1.128754	0.52214
N	4.31622	1.552395	-0.369367
C	3.212504	2.479372	-0.110756
C	3.555642	3.674947	0.69771
O	2.903136	4.6849	0.727501
H	1.445086	-0.463724	-1.577472
H	2.688207	-0.919059	0.371922
H	1.341274	0.215625	0.658596
H	3.563856	1.056054	1.578697
H	4.167605	1.124557	-1.284885
H	2.444888	2.62744	-0.878271
H	4.492091	3.549373	1.304495
