16

N	1.211653	-0.118078	0.102978
C	2.620832	-0.121366	-0.1279
C	3.104963	-0.603628	-1.460949
C	3.167422	0.857489	-1.135197
C	4.461774	1.557189	-0.895101
C	5.722219	0.867392	-0.611469
O	5.480326	1.441625	-1.873304
H	0.96562	0.539483	0.8401
H	0.893676	-1.036743	0.405193
H	3.299189	-0.329569	0.716367
H	2.338318	-0.910339	-2.176191
H	4.035165	-1.174818	-1.511272
H	2.402016	1.473108	-1.618412
H	4.354517	2.574676	-0.490533
H	5.754868	-0.230119	-0.581081
H	6.480621	1.363609	0.009612
