16

C	0.960213	0.004171	-0.239396
C	2.430174	0.044696	-0.004549
C	3.231793	1.124078	0.002954
C	4.664191	0.742831	0.153229
N	5.22542	-0.099743	-0.903572
C	4.676491	-0.744745	0.271751
C	3.231471	-1.213339	0.248757
H	0.718542	-0.569766	-1.150545
H	0.537757	1.012511	-0.351438
H	0.439196	-0.498971	0.593063
H	2.892932	2.154338	-0.130973
H	5.372184	1.40438	0.66304
H	4.57496	-0.14888	-1.689714
H	5.40039	-1.284637	0.890976
H	2.946041	-1.664605	1.216182
H	3.047046	-1.988998	-0.517143
