18

N	3.793177	-1.100052	-0.15766
C	2.641418	-0.226931	-0.197602
C	2.999597	1.22205	-0.047966
C	4.245636	1.709397	-0.018791
C	4.588052	3.164131	0.058118
C	4.986972	3.701421	-1.319021
O	3.950602	3.5828	-2.249283
H	3.531307	-2.05328	-0.393996
H	4.181434	-1.126007	0.783722
H	1.856423	-0.46226	0.556347
H	2.138548	-0.35688	-1.174459
H	2.151538	1.911288	0.059823
H	5.073751	1.000562	-0.144938
H	5.420619	3.328962	0.763835
H	3.722961	3.743801	0.420971
H	5.908869	3.183324	-1.659236
H	5.233642	4.772641	-1.24308
H	3.627873	2.673774	-2.192713
