14

C	1.175466	0.486233	-0.552879
O	2.547127	0.330598	-0.257559
C	3.284329	1.45917	-0.313665
O	2.800827	2.533322	-0.601286
C	4.680809	1.198127	0.009675
C	5.554983	2.233182	-0.009787
N	6.877031	2.192731	0.252826
H	0.72635	-0.512307	-0.483352
H	1.028171	0.89644	-1.564133
H	0.6882	1.168968	0.160901
H	4.978182	0.177228	0.258566
H	5.153957	3.218857	-0.272542
H	7.328819	1.332869	0.529458
H	7.43361	3.032504	0.241858
