18

C	0.816174	-0.610276	-0.436156
C	2.285653	-0.558269	-0.745206
N	2.768213	0.212457	-1.886003
C	3.070397	0.680007	-0.530252
C	4.523011	0.713895	-0.115314
C	5.393131	-0.369858	-0.745966
O	5.481061	-0.251911	-2.131448
H	0.643926	-0.95646	0.594669
H	0.293602	-1.304612	-1.11293
H	0.349574	0.382691	-0.538416
H	2.807254	-1.516405	-0.629436
H	2.019987	0.75122	-2.320057
H	2.482502	1.536741	-0.172346
H	4.579393	0.649767	0.985407
H	4.941641	1.694207	-0.401953
H	5.019256	-1.370347	-0.43162
H	6.412281	-0.289891	-0.331719
H	4.557965	-0.175055	-2.439432
