17

C	2.681592	-0.495081	1.42865
C	2.604447	0.071649	0.013947
C	3.129481	1.468311	-0.083708
N	4.153856	1.807171	-0.770228
C	4.357997	3.229614	-0.532582
C	3.073379	3.734914	0.161174
N	2.533956	2.479158	0.657175
H	2.285517	-1.520642	1.463002
H	2.106533	0.114165	2.142061
H	3.723761	-0.520586	1.780986
H	1.556962	0.059666	-0.337927
H	3.189707	-0.537662	-0.687856
H	5.239136	3.361296	0.122463
H	4.577604	3.765616	-1.468996
H	2.385696	4.216876	-0.561324
H	3.270897	4.453273	0.971661
H	1.54587	2.411133	0.868134
