16

C	0.830894	-0.173496	-0.099469
C	2.353086	-0.064583	0.00814
C	3.045004	-0.828137	-1.122796
C	2.772859	1.371153	-0.004284
C	3.419278	1.991615	0.995246
C	3.801257	3.365199	0.938675
N	4.117471	4.481143	0.905462
H	0.328818	0.346762	0.729546
H	0.517356	-1.22853	-0.082708
H	0.469556	0.266821	-1.043274
H	2.667964	-0.505114	0.970431
H	2.772578	-0.408097	-2.104903
H	2.740554	-1.885995	-1.11731
H	4.140383	-0.78433	-1.027916
H	2.525375	1.943608	-0.907968
H	3.683827	1.453083	1.912027
