14

C	0.967524	0.001199	2.4e-05
C	2.42158	-0.006289	-0.000256
C	3.633493	-0.021286	-0.000554
C	5.090358	-0.015203	-0.000882
C	5.660023	1.413595	0.001863
C	7.117811	1.434375	0.0015
N	8.275051	1.429492	0.001167
H	0.575935	1.030224	0.007209
H	0.5669	-0.515553	0.886298
H	0.566613	-0.503217	-0.893202
H	5.469449	-0.557328	-0.883697
H	5.469859	-0.560874	0.879569
H	5.300331	1.963271	0.886578
H	5.299843	1.966883	-0.880398
