13

N	0.93182	0.116795	-0.004781
C	2.317101	0.147218	-0.035085
C	3.16681	1.223778	-0.027002
N	2.796179	2.560809	-0.049165
C	4.494228	0.682675	-0.07631
C	4.342451	-0.672454	-0.110891
O	3.046449	-1.014874	-0.097922
H	0.515047	-0.23238	-0.866123
H	0.560752	-0.424584	0.773215
H	3.371512	3.154719	0.537463
H	1.812263	2.675831	0.176236
H	5.431098	1.235657	-0.090794
H	5.061228	-1.488121	-0.14664
