17

C	4.662659	1.087663	-1.951327
C	5.859925	1.612589	-1.198667
O	5.836738	3.021325	-1.257212
C	6.792697	3.722343	-0.60683
C	7.827902	3.208025	0.070301
C	6.51903	5.191199	-0.78348
O	5.194576	5.523459	-0.478741
H	4.654158	-0.012121	-1.939123
H	4.685145	1.423924	-2.998238
H	3.728432	1.446827	-1.494814
H	6.802186	1.239486	-1.642043
H	5.843576	1.285576	-0.14214
H	8.024053	2.137689	0.145225
H	8.523004	3.883243	0.569743
H	6.777094	5.459691	-1.830539
H	7.180513	5.77296	-0.126128
H	4.64412	4.867043	-0.923128
