18

C	-1.72883	0.587346	0.263766
N	-1.683038	-0.835931	-0.216293
C	-0.218419	-0.769605	0.082596
C	1.078046	-1.181756	-0.580521
C	2.008624	-0.032678	-0.036888
C	1.106013	1.127464	0.535159
C	-0.223955	0.721498	-0.064786
H	-2.442162	1.244066	-0.257356
H	-1.949267	0.604193	1.343965
H	-1.812527	-0.825529	-1.230547
H	-0.132501	-1.021681	1.15842
H	1.452959	-2.180581	-0.312566
H	0.99701	-1.133241	-1.679016
H	2.681477	-0.418243	0.743729
H	2.657257	0.344506	-0.841584
H	1.078088	1.091152	1.636229
H	1.477442	2.119994	0.24143
H	-0.181259	0.928973	-1.151867
