17

C	1.2605	-0.707296	0.702391
C	2.762069	-0.907961	0.565803
O	3.064211	-2.098851	-0.118195
C	3.438751	0.307024	-0.074001
C	4.900647	0.071269	-0.418043
C	5.13195	-0.664189	-1.707566
O	4.268066	-1.03971	-2.459201
H	1.021375	0.178183	1.312257
H	0.80287	-1.590074	1.171337
H	0.799497	-0.572115	-0.290132
H	3.191751	-1.042674	1.576224
H	2.937744	-1.936431	-1.063374
H	3.345712	1.165647	0.609462
H	2.897243	0.579603	-0.997086
H	5.429984	-0.485799	0.376929
H	5.456797	1.022523	-0.513683
H	6.210534	-0.830988	-1.963461
