18

N	1.249967	-0.201218	-0.462016
C	2.699688	-0.174955	-0.354034
C	3.13685	1.278584	-0.190074
O	2.330233	1.863912	0.804497
C	4.598925	1.437318	0.181668
C	4.992173	2.888858	0.434412
O	4.428061	3.410022	1.599799
H	0.864098	-1.11034	-0.224705
H	0.943597	0.019898	-1.40735
H	3.238073	-0.64402	-1.200668
H	2.985726	-0.721768	0.559419
H	2.969483	1.800361	-1.161445
H	1.466186	1.422159	0.694799
H	5.217554	1.016301	-0.629535
H	4.804731	0.855961	1.097371
H	4.727622	3.490613	-0.464405
H	6.088383	2.957786	0.53865
H	3.497399	3.138926	1.595498
