20

C	2.996532	-0.832435	1.17474
C	2.596932	-0.01236	-0.040559
C	3.073655	1.461765	-0.017851
C	2.566094	2.162016	-1.284068
N	2.580085	2.212165	1.127387
C	4.586363	1.490908	-0.037459
C	5.362037	2.25303	0.732868
H	2.6363	-1.868655	1.093493
H	2.570011	-0.414118	2.10032
H	4.090393	-0.862703	1.299419
H	1.496771	-0.008999	-0.144274
H	2.985951	-0.492356	-0.95577
H	2.955787	1.678268	-2.192236
H	2.881727	3.214625	-1.280679
H	1.464385	2.124673	-1.329962
H	2.85808	1.763109	1.998157
H	1.56214	2.23382	1.117489
H	5.047159	0.825613	-0.778833
H	4.922856	2.939922	1.461737
H	6.451652	2.228021	0.643352
