17

C	4.095209	-0.458655	2.506925
C	3.499391	-0.958743	1.229075
C	2.602378	-1.948069	1.149744
O	3.856067	-0.318858	0.076057
C	5.110363	0.27576	0.001447
C	6.314107	-0.598788	-0.17867
C	5.771493	0.206704	-1.32911
H	5.188626	-0.592219	2.520594
H	3.670951	-0.997163	3.362987
H	3.895217	0.61763	2.636996
H	2.23252	-2.436629	2.050796
H	2.21142	-2.257001	0.178846
H	5.219329	1.197928	0.586181
H	6.133727	-1.677403	-0.191955
H	7.256361	-0.294005	0.284753
H	6.33022	1.077633	-1.680404
H	5.221673	-0.333542	-2.103832
