15

C	0.397847	1.53417	0.382198
C	1.4601	0.470165	0.027085
C	0.605073	-0.51175	-0.828034
O	-0.258159	0.385961	-1.504033
C	-0.848786	0.945085	-0.343784
C	-1.259507	-0.289642	0.439964
C	-0.340169	-1.210722	0.134014
H	0.651356	2.513364	-0.048446
H	0.23806	1.664185	1.462031
H	1.91683	-0.01407	0.90164
H	2.264465	0.8972	-0.589056
H	1.162662	-1.136237	-1.537503
H	-1.633645	1.666119	-0.60568
H	-2.063051	-0.346178	1.175724
H	-0.205657	-2.206612	0.55759
