10

C	0.908185	-0.390709	0.020947
C	2.152284	0.085859	-0.086584
N	2.501646	1.423881	-0.159266
C	3.780013	1.897578	-0.268416
O	4.070939	3.064837	-0.3288
H	0.737416	-1.46608	0.072651
H	0.035593	0.266814	0.061171
H	3.012195	-0.591589	-0.125347
H	1.772859	2.131668	-0.129042
H	4.53253	1.071789	-0.295644
