13

C	1.054146	0.078429	-0.621636
C	2.044104	-0.492652	0.063585
C	3.394599	0.112793	0.2598
C	4.528731	-0.864031	0.108297
O	4.415826	-2.063737	0.052924
C	5.938375	-0.268938	0.049956
O	6.158341	0.909908	0.078225
H	0.081251	-0.408847	-0.725759
H	1.176235	1.053661	-1.10431
H	1.893893	-1.475659	0.522812
H	3.498384	0.52101	1.285919
H	3.576615	0.979511	-0.396297
H	6.736879	-1.049368	-0.025876
