18

C	2.834319	1.969995	0.651028
C	4.174196	1.58385	0.074222
O	4.909432	2.761805	-0.160206
C	6.144255	2.667212	-0.700271
C	6.772053	1.52705	-1.027475
C	6.714265	4.046344	-0.909638
N	5.900626	4.922795	-1.730036
H	2.230919	1.073087	0.853302
H	2.280415	2.611941	-0.050209
H	2.963898	2.522387	1.593306
H	4.054704	1.023421	-0.872665
H	4.731765	0.92769	0.769662
H	6.344326	0.536207	-0.869689
H	7.769681	1.579907	-1.464161
H	7.72133	3.956515	-1.343938
H	6.839746	4.517063	0.081381
H	5.769596	4.501858	-2.648854
H	4.969584	4.981882	-1.320018
