17

O	0.787218	-0.062091	-0.216933
C	2.12482	0.0172	0.131744
C	3.089703	-0.851249	-0.610623
C	2.594477	-1.472013	-1.911348
C	2.786963	-0.375906	-2.971126
C	2.649118	0.954294	-2.213841
C	3.125665	0.653441	-0.798411
H	0.405721	0.81847	-0.133755
H	2.314439	0.141087	1.208034
H	3.862471	-1.367268	-0.033698
H	3.151142	-2.389077	-2.153883
H	1.531913	-1.746028	-1.818479
H	3.807703	-0.447715	-3.383388
H	2.089329	-0.464897	-3.819118
H	3.236673	1.762366	-2.673666
H	1.596199	1.284475	-2.205225
H	3.923856	1.26077	-0.360962
