16

C	0.868386	0.52478	-0.025326
C	2.153414	0.224477	0.160951
C	3.324401	1.166691	0.007191
N	4.015553	1.339126	1.296402
C	3.597322	2.63626	1.827906
C	3.075991	3.397738	0.634856
C	2.933302	2.569944	-0.401724
H	0.08408	-0.221614	0.126201
H	0.550968	1.527324	-0.327381
H	2.434098	-0.785518	0.483108
H	4.020773	0.70413	-0.717868
H	5.014857	1.376462	1.118184
H	4.432774	3.140496	2.341636
H	2.794906	2.521074	2.583417
H	2.807666	4.456884	0.653957
H	2.53304	2.828596	-1.383999
