13

C	1.014751	0.060639	0.047523
C	2.511604	0.054512	-0.009248
N	3.138467	1.165	-0.023515
N	4.535801	1.157594	-0.106106
C	5.135496	0.043129	0.011952
O	4.598607	-1.175504	0.134981
C	3.199569	-1.282836	-0.078827
H	0.601125	-0.954662	0.1307
H	0.603799	0.529499	-0.859262
H	0.67091	0.650547	0.910083
H	6.230425	0.011081	0.039379
H	2.793298	-1.962996	0.688684
H	3.012299	-1.759525	-1.062343
