18

C	1.033633	-0.02238	-0.012565
C	2.537441	0.052886	0.009806
O	3.081289	0.06422	1.293793
C	3.342236	-0.607414	-1.078342
C	3.254768	0.901996	-0.989661
C	4.469116	1.706	-0.612585
N	5.285647	1.955585	-1.788232
H	0.642109	0.01216	-1.039404
H	0.603699	0.817301	0.555189
H	0.682443	-0.961152	0.448991
H	2.96374	-0.816649	1.666513
H	2.823603	-1.125975	-1.889878
H	4.287406	-1.061929	-0.76497
H	2.626086	1.386651	-1.7451
H	4.986854	1.187058	0.218367
H	4.138605	2.677495	-0.205768
H	5.61545	1.069071	-2.167652
H	6.118055	2.484038	-1.535919
