11

C	1.392058	-0.474201	0.279554
N	2.657202	-0.568737	0.365082
N	3.4025	0.51826	0.161613
C	4.779322	0.505614	0.23146
O	5.423496	1.512237	0.042046
C	5.381071	-0.782372	0.542704
C	5.975903	-1.805876	0.795376
H	0.799713	-1.377075	0.451186
H	0.866453	0.467521	0.042376
H	2.98801	1.426575	-0.062428
H	6.500651	-2.716917	1.020551
