12

C	0.959417	0.005509	0.012828
C	2.41121	-0.042133	0.003922
C	3.623265	-0.077207	-0.009674
C	5.065939	-0.1212	0.019422
C	5.850028	-0.659866	-1.103644
O	5.776723	0.722034	-0.871526
H	0.595392	0.949392	-0.422841
H	0.567569	-0.062154	1.039564
H	0.526387	-0.822933	-0.569624
H	5.505817	-0.187117	1.025149
H	5.318691	-1.02873	-1.990622
H	6.818961	-1.135566	-0.899764
