11

O	1.636619	-0.285728	1.424324
C	2.405208	-0.07837	0.272341
C	2.936512	1.313979	0.299691
C	4.192907	1.642485	-0.033777
C	4.664681	2.988742	-0.060587
N	5.065071	4.077284	-0.087768
H	1.192665	-1.135521	1.347671
H	1.794736	-0.180436	-0.651636
H	3.243855	-0.797768	0.180239
H	2.220998	2.089834	0.593061
H	4.922177	0.87221	-0.30946
