15

O	0.8575	0.706683	-0.439504
C	1.932671	0.341512	-0.050699
C	3.194185	1.18104	-0.039657
C	3.797733	1.312032	1.380868
C	3.374599	2.708497	1.870847
C	3.042562	3.435328	0.59815
C	2.948405	2.608215	-0.445798
H	2.077024	-0.699884	0.348331
H	3.897705	0.650996	-0.71112
H	4.894351	1.258297	1.312338
H	3.479726	0.501032	2.055709
H	4.166393	3.203412	2.457127
H	2.485873	2.667497	2.527792
H	2.849245	4.510534	0.560116
H	2.659007	2.894567	-1.458181
