11

C	1.063668	-0.016682	0.204007
C	2.421367	0.041072	-0.430587
O	2.779571	-0.691223	-1.313941
C	3.397958	1.128958	0.056064
C	3.117565	1.705047	1.360754
N	2.869508	2.150815	2.399648
H	0.579416	0.97271	0.178727
H	1.161963	-0.28361	1.268664
H	0.447565	-0.760813	-0.314359
H	3.381402	1.932298	-0.70129
H	4.411337	0.700538	0.033952
