18

C	2.48358	-1.353839	-0.641415
C	1.910739	-0.032578	-0.147964
C	2.957659	0.975897	0.289956
C	3.787983	0.57232	1.486584
C	3.62371	1.791768	-0.784855
C	2.621523	2.432836	0.13434
H	1.686523	-2.030885	-0.984891
H	3.041324	-1.879476	0.149217
H	3.176117	-1.193127	-1.483193
H	1.218787	-0.214386	0.694458
H	1.298599	0.419982	-0.947272
H	4.491488	1.369872	1.76956
H	4.382095	-0.332764	1.28296
H	3.146334	0.365718	2.359246
H	3.328765	1.614199	-1.823818
H	4.679284	2.050507	-0.65983
H	2.988535	3.131531	0.892236
H	1.641104	2.695075	-0.274198
