18

C	0.93763	0.136734	0.220083
C	2.334897	-0.452125	0.243614
N	3.335765	0.559699	-0.008101
C	4.695606	0.084816	0.002288
C	5.641467	1.184903	-0.39532
C	6.325869	2.006192	0.606549
O	7.002855	0.986418	-0.093462
H	0.175335	-0.642379	0.367123
H	0.747438	0.638971	-0.740403
H	0.806578	0.882868	1.021662
H	2.424593	-1.222108	-0.543814
H	2.497501	-0.988921	1.207176
H	3.229841	1.327235	0.653011
H	4.786845	-0.736958	-0.730394
H	5.034574	-0.334826	0.976711
H	5.436932	1.631007	-1.379594
H	6.14637	1.811716	1.673774
H	6.623123	3.034688	0.362587
