15

C	1.022112	0.055298	0.252274
C	2.48963	0.039777	-0.010355
N	3.168801	1.106232	0.207737
N	4.513165	1.126305	-0.126757
C	5.174912	0.035881	-0.054371
C	4.52126	-1.291016	0.197952
C	3.155751	-1.231209	-0.473641
H	0.752651	-0.692553	1.016187
H	0.465743	-0.20942	-0.663118
H	0.71094	1.052608	0.587733
H	6.251251	0.101372	-0.260902
H	5.14382	-2.109069	-0.191315
H	4.408915	-1.460028	1.285939
H	2.531563	-2.103886	-0.233369
H	3.269156	-1.209102	-1.573942
