12

O	1.924878	-0.858568	0.301525
C	1.921971	0.221302	-0.219557
C	2.93552	1.280992	0.061433
C	3.535002	2.041907	-1.097543
N	2.551459	2.625958	-0.247308
C	2.704236	3.70593	0.605159
O	2.541551	3.663537	1.793171
H	1.154338	0.522479	-0.980589
H	3.563609	1.107539	0.943691
H	3.227144	1.806389	-2.123407
H	4.581365	2.349446	-0.981379
H	2.947336	4.639171	0.044344
