19

O	1.022668	-0.028631	0.039067
C	2.434382	0.020631	0.026417
C	2.921795	-1.322723	-0.503097
C	2.536378	-1.523999	-1.96615
C	3.036701	-0.374877	-2.837649
C	2.548656	0.972653	-2.311501
C	2.943233	1.166514	-0.850435
H	0.695214	0.837067	0.303113
H	2.821108	0.15834	1.057418
H	2.502393	-2.123778	0.125644
H	4.019349	-1.362138	-0.390395
H	2.929154	-2.486197	-2.332576
H	1.437205	-1.580798	-2.032634
H	4.142783	-0.38018	-2.849376
H	2.715335	-0.517	-3.882539
H	2.942117	1.797511	-2.927118
H	1.448558	1.013337	-2.388654
H	4.042508	1.218711	-0.758102
H	2.556863	2.126877	-0.463823
