16

C	-0.89982	5.3e-05	-1.18284
C	-0.60008	1.019355	-0.068534
C	-1.301055	6e-06	0.878583
C	-0.600209	-1.019361	-0.068604
C	0.872339	-0.742787	0.298553
N	1.737415	-0.000138	-0.591615
C	0.872423	0.742575	0.2986
H	-1.96248	0.00013	-1.45986
H	-0.301059	5.1e-05	-2.10854
H	-0.916101	2.069544	-0.140679
H	-0.998274	-4.8e-05	1.939093
H	-2.400369	7.7e-05	0.797619
H	-0.916342	-2.069512	-0.140817
H	1.355893	-1.360029	1.062491
H	1.437731	-9.8e-05	-1.56459
H	1.356098	1.359693	1.06256
