13

C	2.197275	3.127157	-0.840755
C	3.244333	2.318212	-0.717342
O	4.472314	2.793352	-0.368299
C	5.492178	1.944646	-0.234414
C	6.733334	2.343981	0.092859
C	7.797953	1.355937	0.224334
O	8.943912	1.606799	0.510998
H	1.229513	2.71517	-1.125849
H	2.289631	4.200306	-0.661876
H	3.194308	1.235466	-0.886978
H	5.262305	0.882873	-0.407706
H	6.965871	3.397901	0.263853
H	7.472414	0.296231	0.033715
