14

C	0.978581	-0.052338	0.003155
C	2.506255	-0.030787	-0.000266
C	3.066708	1.313087	-0.000137
C	3.495509	2.450573	1.6e-05
C	4.079684	3.745884	0.000213
N	3.352165	4.800629	-0.00018
O	4.108443	5.93083	0.000119
H	0.607894	-1.08775	0.002922
H	0.575371	0.457961	-0.883818
H	0.579387	0.456108	0.893006
H	2.890737	-0.574843	-0.881237
H	2.894721	-0.576685	0.877804
H	5.178351	3.834306	0.000724
H	3.455684	6.638916	-0.000242
