15

C	0.96495	-0.022961	0.011322
C	2.476548	0.070645	0.044146
C	3.102147	1.187589	0.870588
C	4.469136	0.59909	1.200045
O	4.263747	-0.807121	1.281992
C	3.133303	-1.168723	0.638906
O	2.758489	-2.300855	0.573171
H	0.655883	-0.94683	-0.498264
H	0.522121	0.834764	-0.515832
H	0.550756	-0.050848	1.031115
H	2.863497	0.126963	-0.992074
H	2.518781	1.338545	1.793964
H	3.167184	2.153232	0.349621
H	5.208033	0.806501	0.405633
H	4.886455	0.941787	2.157098
