17

C	2.89739	-0.337813	-1.704005
C	2.817892	-0.639357	-0.236227
C	2.27565	-1.769263	0.232145
C	3.394493	0.399681	0.68995
C	4.886189	0.565785	0.53282
C	5.475719	1.601912	-0.318375
O	5.454308	1.732286	1.085072
H	2.400657	0.620648	-1.933017
H	2.42535	-1.122801	-2.310896
H	3.944344	-0.232421	-2.0335
H	1.860869	-2.525575	-0.440221
H	2.223647	-1.974866	1.305485
H	3.181772	0.133556	1.737459
H	2.922799	1.381229	0.506359
H	5.471815	-0.351083	0.700661
H	4.812212	2.281486	-0.87137
H	6.462564	1.444445	-0.773721
