16

C	1.076622	0.009173	0.288778
C	2.540114	-0.01787	-0.139741
C	2.696905	-0.036858	-1.649092
N	3.401601	0.975572	0.547507
C	3.993622	-0.016044	1.45444
C	3.325271	-1.100923	0.616903
O	3.388719	-2.290225	0.547118
H	0.976379	-0.00188	1.385921
H	0.536326	-0.861032	-0.112885
H	0.588241	0.920268	-0.094622
H	3.760646	-0.037979	-1.924906
H	2.229696	0.855889	-2.094441
H	2.218205	-0.931103	-2.076361
H	2.898541	1.732613	1.001831
H	5.097204	-0.039446	1.484298
H	3.620498	-0.020186	2.497234
