20

C	1.304851	-0.70126	-0.095248
C	2.813514	-0.618879	-0.316306
N	3.250193	-1.111774	-1.615487
C	3.321277	0.806636	-0.106109
C	4.814129	0.992762	-0.357353
C	5.690212	0.035441	0.434865
O	5.382117	0.002425	1.808098
H	1.01923	-0.358358	0.912335
H	0.945335	-1.736645	-0.209744
H	0.767677	-0.075046	-0.827975
H	3.300496	-1.251103	0.447159
H	2.802306	-0.572443	-2.356997
H	2.947365	-2.07508	-1.747807
H	3.082279	1.101426	0.928269
H	2.754404	1.494128	-0.760666
H	5.091084	2.036377	-0.116657
H	5.036729	0.847214	-1.426584
H	6.757974	0.280893	0.262895
H	5.539714	-0.988034	0.058416
H	5.491625	0.893319	2.157144
