18

C	1.225883	-0.062969	0.503
N	2.380559	0.016179	-0.336001
C	2.762989	-1.188419	-1.045944
C	3.544799	-0.659111	-2.208039
C	3.379754	0.662999	-2.327027
C	3.940209	1.58149	-3.354268
C	2.458897	1.143058	-1.23868
H	1.113367	0.863784	1.088485
H	1.331685	-0.891206	1.222025
H	0.273828	-0.223127	-0.056905
H	1.884639	-1.777875	-1.408901
H	3.34469	-1.873496	-0.398954
H	4.136296	-1.288464	-2.87663
H	4.56324	2.364288	-2.888864
H	3.135587	2.10408	-3.899329
H	4.556273	1.042838	-4.088332
H	2.832991	2.053289	-0.729797
H	1.471123	1.423382	-1.683409
