13

O	1.078315	0.05074	0.268942
C	2.263764	0.073356	0.056432
C	3.040779	1.338341	0.01796
N	4.285161	1.371907	-0.288061
C	4.662318	2.778972	-0.207938
C	3.33809	3.577105	-0.11525
N	2.432124	2.52719	0.318712
H	2.871596	-0.839097	-0.146281
H	5.280951	2.921971	0.697982
H	5.288564	3.071806	-1.064657
H	3.039898	3.99107	-1.09772
H	3.386772	4.410123	0.602348
H	1.425098	2.598875	0.235111
