13

N	0.896228	0.137167	-0.11399
C	2.258361	0.047063	-0.110092
C	2.849088	-1.277041	-0.341845
C	2.182097	-2.344072	-0.79802
C	3.054776	1.148826	0.054454
C	4.466036	1.101723	-0.02981
N	5.627432	1.075528	-0.0926
H	0.479755	1.02152	0.144363
H	0.372889	-0.677673	0.177045
H	3.919675	-1.353291	-0.131814
H	1.123817	-2.301938	-1.072278
H	2.689072	-3.300256	-0.945147
H	2.607174	2.128284	0.245596
