14

C	1.403157	0.059724	0.478914
C	2.747672	-0.060899	-0.161524
C	3.483436	1.067928	-0.796216
C	4.084844	0.364277	0.407909
C	4.904794	-0.809782	0.060379
N	4.27333	-1.706999	-0.602077
O	2.964656	-1.329962	-0.743936
H	1.283904	1.05053	0.938562
H	1.273297	-0.711377	1.252287
H	0.611959	-0.06768	-0.275262
H	3.084192	2.069496	-0.619739
H	3.948858	0.910068	-1.773162
H	4.222353	0.896617	1.352948
H	5.954558	-0.974819	0.310235
