19

C	3.057255	-0.99193	-1.21243
C	2.694792	-0.127045	-0.008814
N	3.13964	-0.661053	1.27317
C	3.178095	1.3289	-0.143547
N	2.839643	2.139138	1.017734
C	4.690628	1.480729	-0.359292
O	5.037693	2.825341	-0.287202
H	2.719466	-0.536529	-2.157184
H	2.591164	-1.986214	-1.133031
H	4.146731	-1.142183	-1.282986
H	1.592799	-0.068146	0.050777
H	4.120885	-0.931645	1.226596
H	2.622021	-1.502687	1.514176
H	2.689303	1.77749	-1.02577
H	2.938009	1.539154	1.840905
H	1.870445	2.443885	0.985484
H	4.984138	1.087237	-1.346729
H	5.233217	0.873955	0.4017
H	4.424364	3.164012	0.393423
