20

C	0.939765	-0.021549	0.046309
C	2.452049	-0.005025	0.050334
C	3.199213	1.052448	0.890376
C	4.254755	-0.009552	1.258711
N	5.458969	0.122557	0.471659
C	3.213844	-1.097872	0.833206
C	3.683703	-2.342551	0.116328
H	0.547378	-0.9081	-0.47778
H	0.525413	0.869175	-0.452895
H	0.545919	-0.040353	1.076006
H	2.822784	0.017586	-0.99098
H	2.60744	1.366186	1.764707
H	3.577802	1.953449	0.382863
H	4.546243	-0.046194	2.321864
H	5.241357	0.201453	-0.520485
H	6.048497	-0.701706	0.573382
H	2.61723	-1.377213	1.72022
H	4.33348	-2.090778	-0.737699
H	2.833709	-2.923749	-0.27572
H	4.25604	-3.005813	0.786034
