17

C	0.962155	0.031094	-0.046568
C	2.474108	-0.008701	0.03938
C	3.11395	1.067446	0.918618
O	4.412651	0.600066	1.180264
C	4.338735	-0.794706	1.360776
C	3.078129	-1.248525	0.656733
C	2.586121	-2.486816	0.639901
H	0.576027	-0.765376	-0.700119
H	0.613317	0.990388	-0.459246
H	0.507586	-0.100485	0.947757
H	2.90825	0.099159	-0.972988
H	2.52706	1.1865	1.85515
H	3.187322	2.052959	0.434953
H	5.250517	-1.255646	0.946193
H	4.290592	-1.059391	2.436489
H	1.65062	-2.725784	0.127805
H	3.10263	-3.31232	1.138033
