19

C	2.269156	0.34606	-0.632887
N	3.446859	1.096846	-0.971154
C	4.580006	0.801083	-0.123843
C	5.756099	1.707444	-0.386821
C	6.899446	1.252697	-0.90929
C	5.603216	3.158206	-0.002088
N	4.537442	3.806768	-0.755053
H	1.429944	0.645905	-1.279377
H	1.937258	0.456232	0.426219
H	2.43788	-0.732535	-0.800806
H	3.278974	2.10371	-0.938674
H	4.887467	-0.24806	-0.284212
H	4.330498	0.879111	0.965231
H	7.024602	0.200631	-1.180595
H	7.752615	1.916517	-1.081404
H	6.588328	3.660032	-0.092513
H	5.328307	3.201328	1.067567
H	4.798689	3.880662	-1.736847
H	4.375444	4.751764	-0.415083
