15

C	0.992741	0.132173	-0.284297
C	2.251794	-0.028496	0.132405
C	2.95142	-1.354066	0.261126
C	4.41036	-1.243037	-0.062183
C	5.010102	-0.055093	-0.146229
C	4.272104	1.219954	0.094891
O	2.956567	1.050674	0.574219
H	0.551379	1.129761	-0.322346
H	0.382743	-0.72958	-0.55779
H	2.46324	-2.097832	-0.38728
H	2.832905	-1.727985	1.296945
H	4.976685	-2.16492	-0.225731
H	6.070864	0.029061	-0.40185
H	4.799995	1.828167	0.849032
H	4.2524	1.822909	-0.836934
