15

C	2.645282	-0.994958	1.30976
C	2.971437	-0.360099	-0.033498
N	3.319639	1.03823	0.061505
C	4.615014	1.460806	0.104246
C	4.805797	2.949383	0.299123
O	5.558684	0.702304	-0.003323
H	2.382218	-2.056762	1.18597
H	1.794301	-0.492482	1.797143
H	3.512526	-0.933353	1.984655
H	2.123932	-0.470705	-0.730917
H	3.838525	-0.862423	-0.486791
H	2.583825	1.709438	0.234889
H	3.881211	3.537439	0.211153
H	5.535918	3.304567	-0.440877
H	5.244412	3.119795	1.29383
