20

C	0.60447	0.222865	0.441001
C	1.794337	0.108387	-0.500041
C	2.932234	1.044416	-0.142506
C	3.584714	0.845744	1.212807
C	4.213278	-0.525965	1.41084
C	3.766845	1.609148	-1.229291
N	2.72517	2.413501	-0.601442
H	-0.237823	-0.396007	0.097202
H	0.259926	1.267416	0.489763
H	0.851659	-0.100731	1.464454
H	1.474455	0.35125	-1.525454
H	2.167028	-0.930221	-0.528886
H	2.834778	1.030871	2.002127
H	4.354892	1.626327	1.341556
H	3.459304	-1.327554	1.376854
H	4.719176	-0.59414	2.3859
H	4.958299	-0.737291	0.627573
H	3.580799	1.324472	-2.271439
H	4.817908	1.829617	-1.004475
H	3.135551	3.078366	0.053758
