15

O	2.170173	-0.004504	-0.650692
C	2.003968	0.926809	0.083945
O	2.964522	1.691223	0.597746
C	4.297878	1.363245	0.228134
C	5.355868	2.314622	0.78057
C	6.250842	1.080137	1.024009
C	4.985533	0.19965	0.952355
H	1.016759	1.28753	0.442936
H	4.348158	1.243569	-0.865806
H	5.003584	2.749923	1.727806
H	5.720495	3.121397	0.127998
H	6.932545	0.891398	0.180656
H	6.836106	1.055046	1.954161
H	5.028132	-0.769083	0.435689
H	4.536957	0.057979	1.947563
