10

O	2.710683	-1.052108	0.054249
C	2.172247	0.022407	0.008803
C	2.887582	1.307608	-0.002632
N	2.346136	2.489197	-0.052827
C	3.403602	3.355466	-0.042595
C	4.560536	2.630237	0.014802
O	4.232997	1.328305	0.040177
H	1.064666	0.156814	-0.030104
H	3.278233	4.436562	-0.076951
H	5.618098	2.879493	0.042369
