13

O	1.024543	0.005581	-0.280072
C	2.398979	-0.039092	-0.044042
C	2.918761	1.407794	-0.009925
C	2.340635	2.172712	1.098994
C	1.862332	2.79405	2.019904
C	4.383286	1.430724	0.022004
C	5.592733	1.41787	0.042754
H	0.638659	-0.837788	-0.028945
H	2.947654	-0.573201	-0.84499
H	2.65474	-0.52416	0.916811
H	2.582487	1.876364	-0.954456
H	1.439237	3.347505	2.837577
H	6.667025	1.418421	0.065345
