17

C	0.924765	-0.011755	0.215141
C	2.409146	0.001033	-0.065992
O	2.54364	0.044086	-1.466901
C	3.237891	1.076937	0.691318
C	4.141422	-0.021126	1.295586
O	5.492618	-0.003217	0.934344
C	3.251894	-1.099572	0.632588
H	0.722492	-0.015459	1.296008
H	0.465728	-0.903246	-0.238303
H	0.454131	0.877928	-0.230417
H	3.464148	-0.116622	-1.694875
H	2.668711	1.664463	1.427332
H	3.758657	1.779263	0.020405
H	4.134394	-0.056773	2.395745
H	5.559832	0.212809	-0.00131
H	3.793132	-1.766153	-0.058025
H	2.686089	-1.725016	1.339586
