19

C	3.003701	-1.117096	-0.66391
C	2.400678	0.091958	0.040168
C	3.357236	1.25265	0.128164
C	3.475054	2.261598	-1.006834
N	2.693283	2.229711	-2.203352
C	2.87035	2.676991	0.290859
N	3.499372	3.660614	1.117052
H	2.295868	-1.959238	-0.712362
H	3.908077	-1.468363	-0.142512
H	3.299942	-0.86586	-1.694867
H	2.067437	-0.192489	1.053389
H	1.488622	0.409187	-0.493897
H	4.302564	1.027667	0.63949
H	4.493552	2.636221	-1.178239
H	1.697737	2.220282	-2.005803
H	2.90425	1.406321	-2.763549
H	1.774988	2.782129	0.264052
H	4.487193	3.742989	0.891972
H	3.442895	3.391878	2.098009
