18

C	1.031161	-0.003486	-0.12847
C	2.559441	-0.075592	-0.019514
C	2.951085	-0.745782	1.294776
C	3.135674	-0.872281	-1.196959
C	3.141242	1.351081	-0.02096
N	2.896907	2.086547	-1.139323
O	3.77229	1.803503	0.912457
H	0.697594	0.449915	-1.075162
H	0.603035	0.58743	0.695793
H	0.598659	-1.015447	-0.079433
H	2.560068	-0.183282	2.153824
H	4.043795	-0.784919	1.405444
H	2.553083	-1.771347	1.330476
H	2.847751	-0.451182	-2.173293
H	2.763863	-1.908498	-1.168021
H	4.235288	-0.905338	-1.154001
H	2.395498	1.72309	-1.934907
H	3.269468	3.0253	-1.180528
