16

C	0.844554	-0.243966	0.192415
C	2.3252	-0.062559	0.175127
C	3.01652	1.06644	-0.043027
C	2.426899	2.412915	-0.330924
C	4.530661	1.030906	0.014712
C	5.159889	1.431571	-1.242714
N	5.639871	1.759718	-2.243518
H	0.536716	-0.988017	-0.561235
H	0.291051	0.683468	-0.005114
H	0.511116	-0.633577	1.168923
H	2.905426	-0.974328	0.36761
H	1.33067	2.395889	-0.375428
H	2.799822	2.802749	-1.292676
H	2.725088	3.142304	0.441928
H	4.890151	0.023651	0.275331
H	4.899336	1.715117	0.800401
