14

C	1.027244	-0.286626	-0.061338
C	2.497992	0.10869	0.047097
C	2.680259	1.604739	0.013937
N	2.702474	2.312043	-1.060978
O	2.559909	1.549734	-2.181237
C	2.792502	2.317136	1.250037
C	2.880769	2.851338	2.33577
H	0.913981	-1.380946	-0.036037
H	0.599328	0.081109	-1.004878
H	0.440381	0.135356	0.768582
H	3.064103	-0.321996	-0.792879
H	2.932834	-0.278103	0.980314
H	2.615784	2.194141	-2.894837
H	2.960809	3.334593	3.292115
