19

C	3.425607	-1.143556	-1.072661
C	2.668271	-0.337172	-0.029432
C	2.74077	1.176024	-0.25882
C	4.119278	1.730737	-0.109415
N	4.752371	2.234655	-1.096279
N	6.015817	2.649769	-0.945042
C	6.480207	3.62028	-1.898414
H	3.366361	-2.224046	-0.868646
H	4.48957	-0.861114	-1.103093
H	3.01691	-0.967842	-2.080975
H	3.058825	-0.569193	0.978125
H	1.608627	-0.643833	-0.015763
H	2.067711	1.679721	0.457867
H	2.383324	1.425486	-1.270877
H	4.594902	1.656367	0.891289
H	6.325048	2.803434	0.017339
H	6.259797	3.258332	-2.913032
H	7.570531	3.731351	-1.801311
H	6.014513	4.61982	-1.786552
