18

O	2.12897	-0.226108	-1.372161
C	2.302322	0.107617	-0.020293
C	3.022954	1.436941	0.050149
C	2.239846	2.613448	-0.53196
C	2.797639	3.841678	0.211992
C	3.630715	3.253601	1.367923
N	3.223504	1.861245	1.420813
H	1.628195	-1.044511	-1.422907
H	2.897986	-0.658997	0.519816
H	1.339731	0.209919	0.520754
H	3.978408	1.329991	-0.515444
H	1.171597	2.475815	-0.299742
H	2.334391	2.673976	-1.624776
H	3.425596	4.466998	-0.440242
H	1.985423	4.483582	0.582811
H	4.712851	3.375193	1.144313
H	3.442665	3.757188	2.330401
H	3.885166	1.277794	1.925862
