17

C	0.946823	-0.031489	-0.000228
C	2.399235	0.010054	-0.00031
C	3.615605	0.045774	-0.000398
C	5.037643	0.045844	-0.000586
C	5.821749	1.146428	0.001034
C	5.265749	2.534857	0.00338
C	7.31394	1.032407	0.000622
H	0.517743	0.982762	0.005994
H	0.561129	-0.56185	0.885702
H	0.560698	-0.551052	-0.892356
H	5.520116	-0.939093	-0.00223
H	4.167064	2.538158	0.003319
H	5.619466	3.095928	-0.879027
H	5.619336	3.092822	0.887809
H	7.652556	-0.012967	-0.001077
H	7.745807	1.534288	0.884018
H	7.745522	1.537078	-0.881316
