18

C	1.974367	0.074624	-0.554794
C	1.601982	-0.181087	0.881076
C	0.538818	0.054825	-0.155622
C	-0.350172	1.298982	-0.100689
C	-1.769522	0.716825	0.077346
C	-1.540467	-0.808952	0.151362
N	-0.277496	-1.074987	-0.524038
H	2.419927	1.039615	-0.813738
H	2.34307	-0.772088	-1.140157
H	1.702383	-1.2046	1.250425
H	1.797493	0.606307	1.615053
H	-0.060017	1.977854	0.715523
H	-0.271544	1.870241	-1.040355
H	-2.280483	1.103226	0.972245
H	-2.405079	0.971329	-0.785988
H	-2.358027	-1.400444	-0.287363
H	-1.441485	-1.12184	1.204639
H	-0.42554	-1.051999	-1.533686
