15

N	1.095986	1.449426	-1.295129
N	2.435498	1.326355	-1.230321
C	2.985606	0.936436	-0.148316
C	4.455555	0.915232	0.007803
C	5.354286	1.183406	-1.172265
C	5.243577	2.195385	-0.078604
O	6.278117	2.344231	0.828518
H	0.757169	1.360002	-2.245542
H	0.556582	0.885341	-0.634231
H	2.38081	0.640015	0.730801
H	4.838633	0.221118	0.762658
H	4.856897	1.389817	-2.123293
H	6.284028	0.610808	-1.223005
H	4.651978	3.098549	-0.291092
H	6.997837	2.80153	0.380428
