14

C	0.941584	-0.034863	-0.028991
C	2.395753	-0.013376	-0.005522
C	3.607717	0.002138	0.014841
C	5.068542	0.046175	0.037774
C	5.615811	1.44786	0.012244
C	6.458367	1.949635	0.913759
H	0.528664	0.986087	-0.027383
H	0.535907	-0.558673	0.851208
H	0.561845	-0.547211	-0.927315
H	5.452957	-0.507878	-0.839552
H	5.447238	-0.488806	0.925651
H	5.276834	2.072966	-0.822674
H	6.807094	1.355981	1.765412
H	6.831826	2.973934	0.836527
