11

C	0.94829	-0.1041	-0.002833
C	2.440339	-0.007819	-0.215848
O	3.094012	-0.96434	-0.571593
C	3.117408	1.296731	0.015611
C	2.519481	2.420647	0.42357
H	0.411766	0.59125	-0.666554
H	0.681118	0.158053	1.032569
H	0.627848	-1.131265	-0.214397
H	4.194288	1.268856	-0.180477
H	1.445632	2.468375	0.626734
H	3.086788	3.343101	0.57392
