12

O	2.304756	2.99061	0.077264
C	2.271725	2.210058	-0.834165
C	3.403234	1.232278	-1.148905
O	3.262277	0.461537	-2.066703
C	4.600905	1.288718	-0.268572
C	5.360055	0.028522	-0.02091
N	5.878609	1.01498	-0.928438
H	1.408563	2.118101	-1.540139
H	4.555097	2.037103	0.528863
H	4.990142	-0.88543	-0.498079
H	5.807818	-0.098981	0.970994
H	6.60803	1.571854	-0.484469
