16

O	0.931451	0.669659	0.918785
N	1.87882	0.823243	-0.058555
C	3.021857	1.120095	0.412924
C	4.18067	1.340267	-0.501303
C	4.772839	2.724572	-0.359073
C	5.763255	3.015502	0.73305
C	6.211899	2.971606	-0.698389
H	0.136753	0.447533	0.423104
H	3.1606	1.23597	1.500901
H	3.848009	1.160679	-1.535939
H	4.964469	0.593096	-0.278006
H	4.073664	3.532647	-0.601026
H	6.05945	2.188097	1.38578
H	5.716383	3.984527	1.237366
H	6.47569	3.910577	-1.19228
H	6.811981	2.11499	-1.021238
