13

C	1.080561	-0.097105	0.170946
C	2.383469	0.031945	-0.081282
C	3.20845	1.286676	-0.106049
C	4.55505	0.822704	-0.619501
O	5.511184	1.49413	-0.888875
C	4.471834	-0.690351	-0.727799
O	3.167571	-1.054236	-0.357768
H	0.608149	-1.080413	0.15451
H	0.478689	0.780629	0.405085
H	3.343532	1.721688	0.89891
H	2.798313	2.080945	-0.747602
H	4.696407	-1.005589	-1.762164
H	5.216721	-1.161132	-0.062712
