15

C	1.150228	-0.087326	-0.602869
C	2.449389	-0.014813	-0.287129
C	3.207289	1.222281	-0.269165
C	4.506121	1.416786	0.028096
C	4.833175	2.867147	-0.179279
C	3.422788	3.457745	-0.341579
O	2.548772	2.361413	-0.612085
H	0.620411	-1.042607	-0.608717
H	0.591046	0.814162	-0.864931
H	3.015024	-0.913712	-0.025182
H	5.211567	0.633844	0.300275
H	5.375458	3.327309	0.662651
H	5.460966	3.0152	-1.078593
H	3.331389	4.183964	-1.162433
H	3.085326	3.945049	0.590859
