13

C	0.956707	0.030436	-0.000941
C	2.440942	0.055939	0.012429
C	3.308058	1.090565	-0.101253
N	4.61915	0.653295	-0.160279
N	4.577094	-0.70221	0.11984
C	3.257607	-1.163708	0.087652
O	2.927926	-2.331974	0.093778
H	0.529308	1.041551	-0.05055
H	0.56932	-0.470756	0.90006
H	0.585632	-0.548562	-0.862205
H	3.107996	2.161677	-0.154364
H	5.287324	1.163422	0.416165
H	5.311075	-1.276844	-0.280663
