15

O	2.08921	-1.269412	-0.291809
C	2.062008	0.127487	-0.454489
C	2.898094	0.75333	0.641365
C	4.339883	0.3235	0.590495
C	5.351192	1.06945	-0.193719
N	5.307028	1.177548	1.257613
H	1.63088	-1.672692	-1.034242
H	1.027842	0.524009	-0.399135
H	2.47215	0.429366	-1.440876
H	2.46934	0.472712	1.618906
H	2.844965	1.851796	0.571128
H	4.479334	-0.763397	0.651766
H	5.059604	1.97525	-0.739034
H	6.16239	0.503456	-0.667212
H	6.04806	0.623678	1.683474
