21

C	2.723746	-1.39428	-0.570638
C	2.028279	-0.104365	-0.14567
C	0.966655	-0.363849	0.91923
C	3.024528	0.971106	0.284725
C	3.88124	0.655989	1.490366
C	3.645101	1.795766	-0.808501
C	2.602697	2.401009	0.090406
H	3.492666	-1.198698	-1.334102
H	2.001773	-2.113173	-0.988688
H	3.215599	-1.886301	0.283973
H	1.510244	0.298644	-1.035689
H	1.404981	-0.8167	1.822867
H	0.195618	-1.057475	0.548722
H	0.468248	0.57059	1.220138
H	4.563088	1.490209	1.714485
H	4.50118	-0.239201	1.324211
H	3.269076	0.483012	2.389909
H	3.364882	1.574473	-1.8431
H	4.683206	2.119096	-0.688202
H	2.922534	3.141083	0.830013
H	1.610249	2.592548	-0.328823
