17

C	0.552707	0.346333	-0.795158
C	-0.019618	1.258255	0.226206
N	0.175938	-0.143229	0.5089
C	1.235697	-0.491465	1.414123
C	0.839057	-0.672965	2.89122
N	1.380646	-2.043748	2.89996
C	1.641884	-1.976661	1.451011
H	-0.051704	-0.002592	-1.63903
H	1.623241	0.458096	-1.015464
H	-1.057971	1.599309	0.155818
H	0.668164	1.979463	0.688731
H	2.119527	0.175685	1.302515
H	-0.255301	-0.654448	3.031578
H	1.293684	0.032265	3.606867
H	2.230833	-2.126141	3.448348
H	2.673081	-2.20609	1.133659
H	0.950815	-2.610817	0.870046
