11

N	0.966091	-0.114275	0.128776
C	2.231109	0.012361	0.03509
C	2.993093	1.266629	-0.035522
C	4.32985	1.228955	-0.132739
O	5.016697	0.062962	-0.168722
C	4.273861	-1.071839	-0.100249
N	3.017588	-1.157999	-0.007667
H	0.530061	0.810697	0.149513
H	2.479829	2.229856	-0.009612
H	4.987561	2.097558	-0.19165
H	4.92248	-1.954244	-0.136357
