14

C	0.973414	-0.027998	-0.001854
C	2.426209	0.001779	0.001056
C	3.637223	0.033501	0.003728
C	5.092154	0.0409	0.004424
O	5.553975	1.376473	0.122149
N	6.914668	1.389875	0.141769
C	7.386826	2.563623	0.244803
H	0.563403	0.99364	0.021217
H	0.581303	-0.566113	0.875527
H	0.585244	-0.523443	-0.905734
H	5.479832	-0.408279	-0.928595
H	5.480013	-0.564502	0.844443
H	8.475508	2.657342	0.268508
H	6.746728	3.454651	0.309478
