17

C	1.448937	0.062506	0.058202
C	2.475126	1.164788	0.135804
O	3.75516	0.578771	-0.011109
C	4.817339	1.405536	0.019003
C	6.12351	0.694081	-0.125862
N	4.654001	2.659532	0.164069
N	5.779257	3.451112	0.232652
H	0.435494	0.476023	0.168381
H	1.609491	-0.678978	0.855247
H	1.506789	-0.458322	-0.909459
H	2.426353	1.707339	1.096203
H	2.325577	1.924602	-0.651717
H	5.980894	-0.386427	-0.002418
H	6.836781	1.064814	0.627601
H	6.567935	0.870717	-1.120818
H	5.49828	4.415732	0.088947
H	6.487346	3.218834	-0.467266
