17

C	0.908167	0.040548	0.083661
C	2.431264	-0.039239	-0.0245
C	3.021353	-1.291263	0.633748
N	3.255157	-0.813049	1.992691
N	3.52569	0.532105	1.951631
C	3.094545	1.015942	0.845469
C	3.142479	2.466299	0.524969
H	0.426803	-0.753302	-0.508033
H	0.529329	1.006827	-0.282815
H	0.594508	-0.074432	1.132533
H	2.733799	0.048426	-1.080521
H	3.966673	-1.579711	0.130957
H	2.34025	-2.156012	0.619542
H	3.950443	-1.310153	2.538427
H	3.679033	2.647531	-0.42144
H	3.647932	3.014288	1.331248
H	2.128886	2.884094	0.401742
