13

O	1.614844	-0.54268	-0.798611
C	2.043444	0.133042	0.097028
C	3.01484	1.272487	-0.080992
C	2.39942	2.693296	0.006347
C	3.592188	3.030177	0.916838
N	3.813878	1.595254	1.095798
H	1.723246	-0.008885	1.164611
H	3.569056	1.120632	-1.027643
H	1.43872	2.701875	0.542091
H	2.294311	3.240666	-0.938554
H	4.396407	3.557511	0.367377
H	3.382826	3.59058	1.843591
H	4.77391	1.262056	1.110969
