16

C	2.312357	-0.465606	1.425991
C	2.130702	0.189865	0.060597
C	2.718119	1.568271	-0.007887
C	2.012264	2.682959	-0.257355
O	4.048118	1.522739	0.227649
C	4.766073	2.723722	0.231986
H	1.905559	-1.487662	1.43109
H	1.797156	0.110466	2.209863
H	3.378296	-0.518851	1.690623
H	1.065744	0.244745	-0.208189
H	2.626557	-0.425923	-0.710174
H	0.939534	2.604425	-0.434167
H	2.459209	3.67638	-0.304039
H	5.812554	2.471218	0.448081
H	4.394265	3.417234	1.008104
H	4.712693	3.233238	-0.747314
