17

C	1.176625	-0.181889	0.338183
C	2.634155	-0.052718	-0.111093
C	2.881106	-0.816373	-1.40354
C	3.040698	1.411134	-0.180971
C	3.39467	2.052166	-1.308361
C	3.023417	2.116963	1.066832
C	2.999568	2.680477	2.142189
H	0.999742	0.341868	1.289132
H	0.905025	-1.239765	0.475424
H	0.500122	0.249655	-0.416921
H	3.264885	-0.502199	0.678176
H	2.250543	-0.433793	-2.222325
H	2.632733	-1.879748	-1.26808
H	3.932181	-0.75268	-1.723563
H	3.424512	1.539986	-2.27199
H	3.668326	3.108872	-1.289784
H	2.98204	3.183633	3.091161
