14

C	1.029987	0.017765	0.020623
N	2.45493	-0.16074	-0.112317
C	3.029853	-1.47487	0.002057
N	3.168058	0.898619	-0.363275
C	4.453241	0.836849	-0.51608
C	5.168535	2.039179	-0.787593
N	5.791966	2.99229	-1.013956
H	0.814711	1.085948	-0.096703
H	0.6755	-0.313344	1.011618
H	0.479307	-0.545121	-0.752451
H	2.234413	-2.199808	0.211697
H	3.769085	-1.517823	0.822494
H	3.539572	-1.773085	-0.932335
H	5.046603	-0.08454	-0.452049
