15

C	1.392748	0.132443	0.510306
C	2.735827	-0.092932	-0.105778
C	3.491621	0.967181	-0.839309
C	4.075918	0.379123	0.43223
C	4.942966	-0.808681	0.23555
C	4.207112	-1.756738	-0.363885
O	2.908539	-1.41974	-0.561757
H	1.309669	1.163821	0.8795
H	1.232371	-0.55783	1.351698
H	0.59681	-0.033682	-0.232121
H	3.075481	1.976141	-0.780687
H	3.974413	0.711431	-1.786782
H	4.168778	1.006697	1.324433
H	5.989779	-0.895786	0.520276
H	4.485167	-2.752299	-0.709704
