17

C	0.925749	-0.159876	-0.205355
C	2.328258	0.320363	0.079782
C	3.591206	-0.443564	-0.443571
C	4.342684	0.900249	-0.219913
C	2.994027	1.475052	-0.741494
C	2.982119	0.8863	-2.152229
C	3.375904	-0.379082	-1.955388
H	0.185242	0.595056	0.103089
H	0.709168	-1.083035	0.354776
H	0.778049	-0.366965	-1.275665
H	2.44065	0.523183	1.159428
H	3.928156	-1.390063	0.001798
H	4.536501	1.125515	0.841331
H	5.238819	1.083818	-0.831104
H	2.709342	2.528055	-0.607041
H	2.70653	1.397418	-3.074492
H	3.512505	-1.188304	-2.672834
