13

C	0.964947	0.042863	0.000847
C	2.414789	-0.015871	-0.000422
C	3.628423	-0.058016	-0.001399
C	5.053756	-0.060519	-0.001404
C	5.8118	-1.175045	-0.026656
C	5.754587	1.258255	0.028614
O	5.211099	2.328394	0.052265
H	0.614466	1.086332	0.005668
H	0.54836	-0.459175	0.888547
H	0.546875	-0.451733	-0.890302
H	5.371064	-2.173514	-0.049726
H	6.903569	-1.09583	-0.024756
H	6.872875	1.16566	0.027035
