16

C	4.19801	-0.959846	-0.254183
O	3.310707	-0.04436	-0.833449
C	3.516878	1.260256	-0.588982
C	4.482065	1.821199	0.153769
C	4.582915	3.281521	0.34804
C	4.998583	3.887964	1.640573
N	5.922792	3.834924	0.524427
H	3.875235	-1.96175	-0.565321
H	4.180478	-0.899074	0.849674
H	5.235708	-0.791452	-0.595177
H	2.759345	1.869179	-1.09422
H	5.248457	1.220779	0.650603
H	3.862661	3.870286	-0.236561
H	5.245383	3.238436	2.488407
H	4.544834	4.844952	1.925118
H	6.006901	4.742086	0.069803
