11

O	0.924553	-0.01767	-0.00624
C	2.277441	0.015481	-0.000209
C	3.116529	1.115067	0.004237
N	4.406128	0.636684	0.009677
C	4.400075	-0.722875	0.008751
C	3.08736	-1.1506	0.002653
H	0.589823	0.883915	-0.007123
H	2.89671	2.180553	0.003967
H	5.233274	1.2141	0.013841
H	5.325354	-1.294766	0.012542
H	2.731964	-2.178039	0.000424
