12

N	0.970351	-0.009759	-0.081485
C	2.409243	-0.101129	0.029151
C	3.047749	-1.297525	-0.611405
C	3.927705	-0.851183	-1.506753
O	3.971912	0.520286	-1.617701
C	3.041589	1.040775	-0.766585
O	2.792076	2.203168	-0.702731
H	0.689044	0.948784	0.124974
H	0.520155	-0.605813	0.608534
H	2.799237	0.007912	1.068651
H	2.853654	-2.339942	-0.365547
H	4.615166	-1.380284	-2.165371
