16

C	4.342606	-0.737841	-0.968987
O	5.517093	0.009182	-0.774134
N	5.211306	1.302192	-0.488068
C	6.263737	2.02631	-0.312995
C	7.646469	1.465956	-0.424168
C	5.987	3.425421	0.005045
C	6.89118	4.383721	0.244106
H	4.665233	-1.761808	-1.19975
H	3.749383	-0.340271	-1.809658
H	3.715938	-0.743793	-0.061187
H	7.768574	0.967672	-1.397637
H	7.79884	0.688142	0.340087
H	8.420689	2.233347	-0.312862
H	4.918273	3.661069	0.041514
H	7.968092	4.195209	0.221464
H	6.575417	5.402973	0.47757
