14

C	1.044519	-0.318378	0.409362
C	2.501279	-0.036796	0.331553
C	3.096858	1.13327	-0.006614
C	2.398632	2.370576	-0.367893
C	2.999763	3.520424	-0.698235
C	4.534815	1.173609	-0.014295
N	5.692804	1.232834	-0.028181
H	0.781978	-1.150491	-0.265354
H	0.412248	0.540884	0.153297
H	0.775453	-0.650782	1.42607
H	3.162921	-0.874342	0.577375
H	1.306448	2.322343	-0.358665
H	4.090059	3.61351	-0.720352
H	2.414194	4.4048	-0.957719
