14

C	1.078062	-0.153853	0.258497
C	2.514416	0.048345	-0.204049
O	2.760813	-0.571925	-1.433415
C	2.90453	1.524037	-0.235023
C	3.478764	2.102177	-1.298996
C	2.654897	2.279035	0.958514
N	2.43249	2.858775	1.938477
H	0.908969	0.265198	1.260744
H	0.847459	-1.228157	0.28247
H	0.377449	0.342515	-0.433637
H	3.190654	-0.442906	0.518416
H	2.053068	-0.320611	-2.039054
H	3.689551	1.497546	-2.183706
H	3.758608	3.156965	-1.297809
