17

C	2.815584	-1.000784	-0.728776
C	2.433576	0.047108	0.302453
C	3.029378	1.441881	0.022024
C	2.547226	2.450593	1.034506
C	1.749521	3.480931	0.75822
C	4.494009	1.409515	-0.00391
C	5.70525	1.384136	-0.014229
H	2.360497	-1.973608	-0.490117
H	3.906835	-1.13863	-0.771149
H	2.475997	-0.711953	-1.736581
H	2.754562	-0.274645	1.307913
H	1.338226	0.1624	0.346116
H	2.684448	1.762838	-0.97832
H	2.886677	2.280559	2.063629
H	1.401875	3.67785	-0.261257
H	1.415013	4.168613	1.539243
H	6.779416	1.366127	-0.023956
