19

C	3.03238	-1.239129	-0.806068
C	2.677982	-0.193911	0.24117
O	3.034898	-0.618273	1.535327
C	3.263412	1.20935	-0.03438
N	2.88269	2.156111	1.008907
C	4.787673	1.196517	-0.160909
N	5.392255	0.749199	1.091824
H	2.761431	-0.908955	-1.822141
H	2.498508	-2.175915	-0.591408
H	4.110094	-1.46496	-0.790089
H	1.57785	-0.074857	0.249822
H	4.00292	-0.474331	1.589817
H	2.865385	1.567808	-0.999579
H	2.813396	1.626509	1.880199
H	1.942896	2.504901	0.835369
H	5.114996	2.209294	-0.465169
H	5.09067	0.50389	-0.962331
H	5.267626	1.479571	1.793425
H	6.394764	0.611449	0.988265
