15

N	1.271058	0.129675	0.30476
C	2.676656	0.07885	-0.03973
C	2.901863	-0.000397	-1.525063
C	1.960372	0.127718	-2.460203
C	3.428207	1.333263	0.451457
N	2.62275	2.39524	0.661978
O	4.632597	1.32753	0.593473
H	1.14865	-0.008485	1.305687
H	0.766095	-0.621753	-0.161025
H	3.233798	-0.760668	0.422743
H	3.948626	-0.149721	-1.808819
H	0.913462	0.311515	-2.202004
H	2.211829	0.067793	-3.52215
H	1.637178	2.299944	0.443951
H	3.033078	3.286047	0.904935
