15

O	0.825293	0.117989	-0.293665
C	2.143109	-0.125217	0.035859
C	2.950238	-0.869079	-0.9656
C	3.242643	0.586467	-0.721279
N	4.434156	0.932356	-0.036378
C	4.497864	2.01458	0.806804
N	3.556993	2.780709	1.189626
H	0.537577	0.906644	0.179328
H	2.357162	-0.331877	1.09416
H	2.450403	-1.118335	-1.904508
H	3.671022	-1.60644	-0.603621
H	2.886552	1.28188	-1.496648
H	5.307982	0.55984	-0.385412
H	5.515008	2.192245	1.193358
H	2.673348	2.513678	0.745238
