17

C	3.11163	0.748367	-2.015081
O	4.118869	1.272299	-1.193927
C	3.759357	2.026826	-0.12922
C	2.506148	2.30371	0.252709
C	5.006938	2.499117	0.581498
C	5.689469	1.346423	1.311074
O	5.882016	3.122715	-0.326171
H	3.609509	0.195189	-2.821845
H	2.491524	1.550161	-2.452853
H	2.454496	0.05879	-1.455656
H	1.62313	1.923221	-0.261304
H	2.348508	2.937071	1.126038
H	4.710608	3.269433	1.310209
H	5.934834	0.543536	0.599027
H	5.04018	0.926548	2.094143
H	6.622442	1.703786	1.769741
H	5.954484	2.528309	-1.083452
