17

C	2.124313	-0.519819	0.602216
O	3.48595	-0.212505	0.66086
N	3.658222	1.150828	0.4973
C	4.903501	1.445586	0.458898
N	5.34868	2.736392	0.414534
C	4.37426	3.792118	0.321483
C	6.66073	2.999436	-0.113621
H	2.046875	-1.606771	0.747626
H	1.683106	-0.251675	-0.375445
H	1.55359	-0.00468	1.395925
H	5.676363	0.663139	0.494455
H	3.533317	3.571821	0.992975
H	3.962032	3.89849	-0.700813
H	4.836741	4.746045	0.615663
H	7.336108	2.163145	0.120874
H	7.078412	3.90845	0.347199
H	6.664151	3.14246	-1.213159
