14

C	1.018366	0.00262	-0.078068
C	2.541985	-0.013914	0.045054
C	3.002233	-0.738237	1.295908
O	3.132889	-0.659293	-1.062224
C	3.012539	1.44154	0.076837
O	3.080946	2.124346	1.059901
H	0.695901	0.563624	-0.972216
H	0.553378	0.47251	0.800589
H	0.651047	-1.030445	-0.171345
H	2.692146	-0.180987	2.189882
H	4.098544	-0.820299	1.295512
H	2.578034	-1.751394	1.323689
H	2.708086	-0.34191	-1.866919
H	3.279516	1.844608	-0.940109
