17

C	0.692513	2.993806	2.147527
N	1.529414	2.107188	1.395773
C	2.555856	2.554147	0.618104
N	2.866192	3.758118	0.321018
C	3.365459	1.441416	-0.012412
O	3.244522	0.263898	0.735372
C	3.87811	-0.837081	0.159431
H	-0.056536	2.410687	2.699428
H	0.146968	3.68785	1.484601
H	1.25873	3.604333	2.877311
H	1.581613	1.128151	1.650976
H	2.230791	4.42909	0.756936
H	4.414211	1.783105	-0.085074
H	2.997515	1.28955	-1.048564
H	3.721208	-1.701906	0.819483
H	4.967669	-0.673352	0.046387
H	3.464647	-1.0761	-0.840468
