18

C	1.167103	-0.61847	-0.083936
C	2.629544	-0.446968	0.27863
N	3.097658	0.882514	-0.050099
C	4.477494	1.137404	0.269865
C	5.026131	2.421972	-0.335758
C	4.419928	2.876375	-1.637269
O	5.931961	3.011529	0.202525
H	0.825142	-1.643565	0.121809
H	1.006118	-0.400816	-1.150565
H	0.528767	0.064794	0.49979
H	3.238953	-1.170117	-0.291623
H	2.781147	-0.703551	1.351198
H	2.501084	1.575183	0.398723
H	5.091615	0.329993	-0.173832
H	4.729086	1.149343	1.351232
H	4.389845	2.04552	-2.358943
H	4.995586	3.722463	-2.032403
H	3.371448	3.173676	-1.482603
