17

C	-1.730869	0.853111	0.560635
C	-1.190274	-0.251587	-0.293345
C	-0.304755	-1.333394	0.287582
C	1.095991	-1.239044	-0.315912
O	1.652034	0.058835	-0.284534
C	0.858567	1.075286	0.283255
C	-0.532929	1.106771	-0.306294
H	-2.678684	1.309834	0.266122
H	-1.580479	0.790558	1.644234
H	-1.77181	-0.530254	-1.178058
H	-0.246827	-1.234714	1.384242
H	-0.712836	-2.33741	0.093298
H	1.781623	-1.929148	0.209847
H	1.055221	-1.568601	-1.371355
H	0.800286	0.96466	1.385447
H	1.396804	2.015117	0.089593
H	-0.667511	1.727558	-1.197365
