14

C	1.061669	-0.224812	0.268339
C	2.504662	0.022519	-0.158211
C	2.894209	1.481953	-0.133009
C	3.24918	2.162472	-1.236536
C	2.860597	2.12841	1.145534
C	2.820162	2.638372	2.246853
H	0.829261	-1.300408	0.262237
H	0.357626	0.28134	-0.409245
H	0.878404	0.155079	1.285061
H	2.674742	-0.367271	-1.174176
H	3.184899	-0.531276	0.511604
H	3.275524	1.667317	-2.211018
H	3.524709	3.218176	-1.191883
H	2.787125	3.095298	3.218569
