17

C	2.000997	-0.903427	1.288187
C	3.41691	-0.691949	0.841358
C	4.392618	-1.571547	1.097129
C	3.648458	0.597875	0.089551
O	3.248418	1.719776	0.871511
C	5.055442	0.853033	-0.431281
O	5.106521	2.083842	-1.087705
H	1.642487	-0.031533	1.856937
H	1.894515	-1.805524	1.906406
H	1.332633	-0.999088	0.415819
H	4.185095	-2.496097	1.643646
H	5.423177	-1.421154	0.767937
H	2.970506	0.619583	-0.782524
H	3.724055	1.663454	1.710344
H	5.351564	0.065579	-1.142162
H	5.768966	0.809049	0.421013
H	4.570421	2.683368	-0.550007
