15

C	1.158979	0.10425	0.36965
N	2.51421	0.194625	-0.107128
C	3.293547	-1.021553	-0.148149
C	3.58567	-1.593919	1.171419
C	3.814328	-2.04455	2.271639
C	3.16495	1.40899	-0.100576
N	2.723262	2.563084	0.197976
H	0.549047	0.90624	-0.073497
H	1.084956	0.173455	1.471164
H	0.72373	-0.8559	0.057891
H	4.242156	-0.811077	-0.669052
H	2.769029	-1.777079	-0.760463
H	4.020635	-2.443749	3.247796
H	4.210851	1.322737	-0.439836
H	1.7554	2.532326	0.527466
