17

C	1.815948	-0.086382	-1.326473
O	2.31841	0.542643	-0.190497
C	3.258527	1.551357	-0.4553
C	2.573647	2.871882	-0.887571
C	2.840039	3.818649	0.288755
C	3.236132	2.849657	1.396079
O	3.938565	1.827825	0.717576
H	1.147528	-0.894253	-0.997243
H	2.622109	-0.530729	-1.945622
H	1.232582	0.597416	-1.97657
H	3.995053	1.177593	-1.194774
H	1.498003	2.689011	-1.029119
H	2.976297	3.254575	-1.835704
H	3.682921	4.489424	0.062681
H	1.973343	4.442864	0.550548
H	3.904512	3.27974	2.155597
H	2.346033	2.435586	1.906106
