17

C	3.068322	-0.867608	-0.705704
N	2.601099	0.051164	0.303671
C	3.118524	1.408226	0.207939
C	2.400811	2.290942	1.219756
C	4.614473	1.482342	0.386436
C	5.496258	1.793472	-0.564399
H	2.625023	-1.860241	-0.535377
H	4.170737	-0.986167	-0.763488
H	2.728522	-0.529085	-1.699025
H	2.775142	-0.318201	1.236913
H	2.877786	1.77055	-0.809186
H	2.625262	1.961651	2.248999
H	1.312646	2.225472	1.072783
H	2.718083	3.340376	1.130134
H	4.977172	1.219183	1.391022
H	5.168797	2.058276	-1.575854
H	6.573163	1.805688	-0.37236
