16

C	0.9523	0.089557	-0.039904
C	2.438053	0.086833	-0.008516
C	3.290079	1.127886	0.102335
C	4.67408	0.639936	0.057499
C	4.673029	-0.698807	-0.085129
C	3.252871	-1.194573	-0.094708
N	2.963489	-2.131611	-1.162654
H	0.545185	1.110212	-0.044343
H	0.524458	-0.442122	0.828009
H	0.578981	-0.43023	-0.94035
H	3.005004	2.177545	0.207908
H	5.556108	1.278683	0.136465
H	5.532476	-1.365779	-0.159027
H	3.099736	-1.725398	0.870113
H	3.051478	-1.65905	-2.061174
H	2.002191	-2.46129	-1.099285
