18

C	2.667505	1.811496	2.011563
O	2.616722	2.576375	0.833828
C	3.073148	1.916577	-0.295356
O	4.395277	1.496067	-0.206672
C	5.332778	2.539072	-0.046813
C	6.618244	1.928709	0.462012
N	6.37262	1.256031	1.721888
H	2.146798	2.380839	2.793723
H	3.706139	1.625089	2.336373
H	2.155868	0.837219	1.884855
H	2.930691	2.628267	-1.130842
H	2.489136	0.995047	-0.488226
H	4.956915	3.275802	0.68467
H	5.499343	3.059742	-1.011186
H	7.345776	2.743535	0.614498
H	7.033748	1.273162	-0.33345
H	5.731818	0.482094	1.552726
H	7.229892	0.853639	2.092319
