14

C	2.547087	-0.858895	-0.851086
O	2.292821	0.027713	0.206679
C	2.781723	1.319434	0.011748
C	2.301246	2.190477	1.138702
C	1.675514	3.351156	0.961427
C	4.265414	1.334533	-0.040282
N	5.421539	1.332603	-0.090635
H	2.091005	-1.821126	-0.584649
H	3.630235	-1.011911	-1.012213
H	2.098257	-0.502477	-1.798
H	2.432105	1.74013	-0.955073
H	2.510437	1.798571	2.139535
H	1.464953	3.742448	-0.038933
H	1.351224	3.956403	1.811329
