18

C	2.970256	-1.154826	-0.688584
C	2.398773	0.073334	0.007554
C	3.397244	1.197232	0.101207
C	3.55229	2.214818	-1.023752
N	2.742327	2.23416	-2.202142
C	2.976448	2.615427	0.301145
O	3.714032	3.377187	1.190156
H	2.234842	-1.972054	-0.747161
H	3.854907	-1.53597	-0.154779
H	3.289794	-0.914962	-1.715408
H	2.048878	-0.19458	1.019024
H	1.5046	0.421412	-0.53661
H	4.334434	0.947953	0.612104
H	4.581528	2.559421	-1.182818
H	1.754357	2.317353	-1.982129
H	2.859286	1.383354	-2.748747
H	1.88717	2.797461	0.312701
H	3.752653	4.275909	0.84545
