16

C	1.597318	-1.76817	1.251785
C	2.67088	-1.030896	0.452813
N	3.636599	-1.893458	-0.204873
C	2.072208	-0.094428	-0.583532
O	1.334091	-0.840691	-1.560687
C	0.004377	-0.76946	-1.536656
O	-0.661803	-0.129859	-0.774796
H	0.87904	-1.077102	1.719081
H	2.059201	-2.374373	2.046543
H	1.030633	-2.452416	0.59969
H	3.227389	-0.371752	1.144905
H	3.157357	-2.44828	-0.913769
H	4.028577	-2.55771	0.459763
H	2.879948	0.405592	-1.135135
H	1.408768	0.648636	-0.119235
H	-0.402293	-1.404602	-2.352237
