15

C	-1.746421	0.910982	0.347361
C	-1.34785	-0.352195	-0.349621
O	-0.450997	-1.280194	0.27564
C	0.76814	-0.772412	-0.220162
C	2.042145	-0.096257	0.137629
C	0.719116	0.695847	0.070147
C	-0.610002	0.969214	-0.646137
H	-2.707616	1.339304	0.04765
H	-1.516081	1.023919	1.41081
H	-2.034557	-0.82211	-1.06156
H	0.80182	-0.948905	-1.306823
H	2.469192	-0.048971	1.143676
H	2.796582	-0.135422	-0.657316
H	0.495479	0.792674	1.139595
H	-0.717799	1.503496	-1.594369
