17

C	1.531685	1.353456	-0.721984
O	2.867534	0.986902	-0.573551
C	3.612257	1.873409	0.203383
C	5.029924	1.357301	0.278933
C	5.890561	1.488678	-0.983885
C	6.75328	2.403805	-0.107092
O	5.871481	2.252348	1.005928
H	1.038682	0.595936	-1.347988
H	1.42305	2.340886	-1.21498
H	1.003007	1.402971	0.250937
H	3.204029	1.966782	1.231952
H	3.620751	2.894443	-0.233872
H	5.019263	0.342756	0.719419
H	5.384197	1.97334	-1.830163
H	6.367809	0.564054	-1.332469
H	7.768991	2.028155	0.112871
H	6.836687	3.455489	-0.433928
