18

C	0.632536	-0.385628	0.399593
C	2.145629	-0.364477	0.26191
C	2.709807	1.035407	0.088684
N	4.150963	1.020444	0.005895
C	4.734908	2.330715	-0.176127
C	6.183953	2.273701	-0.346686
C	7.381454	2.220375	-0.515376
H	0.252552	-1.411542	0.514068
H	0.140345	0.053521	-0.483378
H	0.30253	0.189516	1.279829
H	2.447376	-0.98287	-0.603401
H	2.623439	-0.823525	1.143335
H	2.420017	1.654712	0.958263
H	2.227841	1.520597	-0.794029
H	4.456887	0.402589	-0.743231
H	4.507157	2.947148	0.713348
H	4.305896	2.892148	-1.039795
H	8.444429	2.175229	-0.665101
