14

N	3.301899	-0.827392	0.640849
C	2.464793	0.027067	-0.198108
C	2.913809	1.463729	-0.123658
C	2.073053	2.474353	0.114839
C	4.3709	1.791343	-0.388014
O	5.210951	0.769255	-0.27852
O	4.737149	2.900788	-0.673123
H	3.138848	-1.815113	0.457857
H	3.121253	-0.660669	1.629917
H	1.385774	-0.036683	0.035643
H	2.583405	-0.321319	-1.239469
H	1.010767	2.303483	0.313155
H	2.448647	3.50081	0.103024
H	4.722132	-0.012851	0.099187
