14

C	0.980967	-0.189404	-0.015224
C	2.466144	0.114368	-0.037556
C	2.778134	1.587445	-0.036838
O	1.922211	2.441748	0.037193
C	4.228073	2.023757	-0.131764
O	4.340697	3.398507	-0.083915
H	0.800145	-1.273561	-0.007304
H	0.479014	0.240013	-0.894312
H	0.504935	0.24993	0.872997
H	2.963682	-0.335432	-0.915654
H	2.983543	-0.328836	0.833125
H	4.641636	1.600407	-1.072107
H	4.788813	1.529281	0.688792
H	3.423537	3.718599	-0.026103
