16

C	-1.208984	-0.71284	-0.528724
N	-1.206123	0.765209	-0.505566
C	-0.04441	1.10611	0.324081
C	1.194938	0.709899	-0.479882
O	1.178332	-0.716833	-0.43176
C	0.022536	-1.067395	0.318111
C	-0.018657	0.009046	1.399212
H	-1.085689	-1.105879	-1.55059
H	-2.134467	-1.142214	-0.107582
H	-2.054082	1.115224	-0.068432
H	-0.058954	2.154315	0.651147
H	2.130147	1.09219	-0.033141
H	1.119935	1.063885	-1.520821
H	0.10101	-2.118017	0.627127
H	-0.926891	-0.005684	2.020951
H	0.878598	0.000243	2.035581
