15

O	1.017303	0.076327	-0.044308
C	2.408255	-0.05309	0.013735
C	2.998459	1.102602	0.823545
N	4.240538	0.544311	1.282435
C	4.252343	-0.82486	1.349356
N	5.218068	-1.491025	1.845008
C	2.928497	-1.283729	0.761958
H	0.674243	-0.592271	-0.644754
H	2.859181	-0.031422	-0.998715
H	2.292487	1.353283	1.640465
H	3.144835	2.008202	0.214339
H	4.950483	1.076725	1.766776
H	5.02661	-2.490293	1.776369
H	3.039631	-2.187039	0.144298
H	2.230758	-1.5099	1.586633
