16

C	1.473464	0.303165	-0.171028
C	2.843772	-0.250985	0.057574
C	3.082791	-1.743098	0.246046
N	4.528552	-1.928897	0.211002
C	5.057423	-0.868688	-0.642421
C	4.090452	0.288605	-0.489679
O	3.732418	0.515193	0.864692
H	1.518219	1.389687	-0.328334
H	0.827692	0.109257	0.700519
H	1.004858	-0.165048	-1.050178
H	2.592765	-2.288235	-0.582436
H	2.661434	-2.130301	1.187317
H	4.877697	-1.762216	1.151017
H	6.091108	-0.620381	-0.355827
H	5.075877	-1.183462	-1.702572
H	4.124938	1.168664	-1.143774
