15

C	0.941974	0.017719	0.137764
C	2.43464	0.072768	0.003772
C	3.154539	1.209339	-0.057266
C	4.603779	1.146584	-0.152792
C	5.20336	-0.026231	0.130167
O	4.512958	-1.150702	0.386444
C	3.20721	-1.210797	-0.16996
H	0.589653	-1.000937	0.358595
H	0.439858	0.337166	-0.791484
H	0.580193	0.676062	0.943053
H	2.666961	2.185913	0.022763
H	5.204942	2.038324	-0.330314
H	6.281922	-0.1564	0.255784
H	2.707809	-2.054084	0.328731
H	3.293892	-1.467195	-1.250337
