14

O	1.495657	-0.263482	-0.151825
N	2.785928	0.163873	-0.078929
C	2.910441	1.44804	-0.023464
C	1.763255	2.362773	0.030688
C	1.829939	3.692008	-0.116547
C	4.288551	1.973529	-0.004419
C	5.353026	1.338144	-0.504083
H	1.581737	-1.222126	-0.131635
H	0.79538	1.884012	0.195762
H	2.770144	4.214482	-0.313146
H	0.927867	4.306431	-0.058389
H	4.417822	2.953792	0.464492
H	5.248109	0.363619	-0.987782
H	6.353554	1.771476	-0.431264
