20

C	0.933571	0.121251	-0.265335
C	2.418988	0.163262	0.016447
C	2.714758	0.028033	1.493572
N	3.333584	-0.557642	-0.872589
C	3.350925	0.907146	-0.891729
C	2.827505	1.636188	-2.109657
C	4.615569	1.543277	-0.357291
H	0.693316	0.158892	-1.336125
H	0.413971	0.958983	0.227274
H	0.504499	-0.81157	0.136005
H	3.789375	-0.054785	1.693133
H	2.236889	-0.882813	1.889024
H	2.315207	0.887587	2.056015
H	2.826617	-0.913398	-1.683718
H	1.924604	1.179694	-2.535828
H	3.598013	1.646954	-2.898672
H	2.591684	2.684901	-1.86725
H	5.061259	0.953482	0.451865
H	4.416889	2.561385	0.014316
H	5.36511	1.619391	-1.161878
