15

O	1.574876	0.099962	1.254194
C	2.601336	0.049154	0.330779
C	2.507988	0.803074	-0.956254
C	3.788736	1.224479	-1.660495
C	4.482008	-0.087231	-1.93564
C	3.728448	-1.142311	-1.595019
C	2.453406	-0.723093	-0.96166
H	0.776741	0.413801	0.817824
H	3.575301	-0.012308	0.830485
H	1.595631	1.387464	-1.120256
H	4.401376	1.900141	-1.037349
H	3.58161	1.771051	-2.598861
H	5.485608	-0.147681	-2.362659
H	4.019138	-2.188056	-1.720615
H	1.523717	-1.278036	-1.124584
