15

O	2.988044	-0.70904	-0.431877
C	2.064082	0.206814	0.108237
C	2.572478	1.607983	-0.121725
C	1.74323	2.622588	-0.412483
N	3.943928	1.694227	0.070837
C	4.696148	2.835881	0.209524
N	5.96319	2.940711	0.220453
H	2.819577	-1.577508	-0.056031
H	1.954327	0.0568	1.201418
H	1.063201	0.106294	-0.347555
H	0.673632	2.432139	-0.512233
H	2.08838	3.647458	-0.55129
H	4.427104	0.804283	-0.02507
H	4.090156	3.742825	0.35458
H	6.408393	2.028994	0.067136
