15

C	0.90365	-0.000917	-0.193533
C	2.431771	0.000273	-0.074666
C	2.939842	1.225837	0.636852
C	3.642863	1.172242	1.771012
O	4.013536	0.02409	2.39787
C	3.642819	-1.135923	1.793287
C	2.939828	-1.211334	0.660339
H	0.549755	-0.896622	-0.729067
H	0.54971	0.883761	-0.747049
H	0.436869	0.008913	0.803262
H	2.835097	-0.00968	-1.107511
H	2.708161	2.212066	0.226263
H	4.001931	2.051159	2.309038
H	4.001763	-2.004317	2.348229
H	2.708064	-2.205309	0.268873
