19

C	0.90331	-0.031939	0.103645
C	2.415658	0.010507	-0.006917
C	2.853019	0.043608	-1.465652
C	3.167646	1.063176	0.849335
C	4.216692	-0.003792	1.218905
C	3.196369	-1.074907	0.795703
O	3.610324	-2.247959	0.174254
H	0.583048	-0.05647	1.157323
H	0.500274	-0.930629	-0.391442
H	0.438698	0.84904	-0.3693
H	3.946625	0.133893	-1.576476
H	2.405711	0.906256	-1.984214
H	2.531008	-0.870249	-1.990217
H	2.573739	1.378092	1.721095
H	3.522292	1.966555	0.329261
H	5.081089	0.014736	0.534454
H	4.599517	-0.034155	2.249716
H	2.591554	-1.387843	1.663262
H	4.203008	-2.012762	-0.547545
