16

C	3.076202	-1.202068	-0.448629
C	2.360466	0.019176	0.107551
C	3.26496	1.226432	0.205832
O	4.394972	1.033774	1.00046
C	3.503181	2.081802	-0.992473
C	2.686357	2.612224	0.160155
H	2.426126	-2.089966	-0.45084
H	3.969665	-1.425569	0.152317
H	3.412896	-1.023691	-1.481736
H	1.9633	-0.201493	1.116025
H	1.484488	0.274653	-0.510832
H	4.094215	0.957884	1.91338
H	2.991806	1.826583	-1.924887
H	4.516233	2.472615	-1.1106
H	3.160109	3.361612	0.79972
H	1.606713	2.730611	0.028558
