15

C	0.902822	-0.126808	0.138841
C	2.231513	-0.028409	0.002043
C	2.971511	1.281795	-0.1907
C	4.478384	1.272855	0.06664
C	5.060906	-0.094386	-0.016347
C	4.291867	-1.185978	-0.05967
O	2.942589	-1.198003	-0.000852
H	0.307642	0.785052	0.143217
H	0.4701	-1.12135	0.241079
H	2.445786	2.003379	0.452761
H	2.740729	1.608625	-1.218605
H	4.7029	1.743665	1.040648
H	4.975938	1.941715	-0.656109
H	6.137552	-0.269532	-0.053899
H	4.698513	-2.19577	-0.134057
