15

C	0.924177	-0.042655	0.008416
C	2.416118	0.052618	-0.047496
C	3.097398	1.212739	0.01101
C	4.59008	1.170092	-0.107625
O	5.14576	0.017188	0.522037
C	4.497019	-1.129569	0.274442
C	3.198415	-1.182183	-0.083482
H	0.537899	-0.574006	-0.877658
H	0.453172	0.949133	0.046123
H	0.595679	-0.617829	0.890094
H	2.591578	2.176207	0.118619
H	4.903803	1.15734	-1.175044
H	5.071025	2.035497	0.368298
H	5.116711	-2.011079	0.462639
H	2.722337	-2.149043	-0.253052
