18

C	1.358528	-0.269799	0.350765
N	2.767269	0.031744	0.383335
C	3.114215	1.298882	-0.210133
C	4.609319	1.575333	-0.057635
C	5.019688	2.860446	-0.609569
C	5.338355	3.93488	-1.072866
C	5.726616	5.223158	-1.626114
H	1.174375	-1.265108	0.783324
H	0.90267	-0.250913	-0.664422
H	0.804051	0.458408	0.966061
H	3.295263	-0.714821	-0.063451
H	2.550995	2.093978	0.308011
H	2.835755	1.380715	-1.285482
H	5.181708	0.768751	-0.551558
H	4.866131	1.517754	1.013559
H	4.945603	5.622013	-2.293258
H	6.65617	5.142201	-2.211895
H	5.897028	5.965227	-0.830032
