19

C	0.69026	-0.088581	-0.126638
C	2.18023	-0.310357	-0.359962
C	2.477574	-0.787202	-1.778223
C	3.004337	0.92081	-0.007049
C	2.76255	2.182878	-0.795566
C	3.576088	1.015337	1.34106
O	4.373435	0.635744	0.238387
H	0.489605	0.261073	0.898405
H	0.127474	-1.022412	-0.278975
H	0.277811	0.658361	-0.824027
H	2.52532	-1.097834	0.332239
H	2.108159	-0.075163	-2.533678
H	1.991138	-1.754694	-1.976181
H	3.56082	-0.912952	-1.925286
H	3.446563	2.974396	-0.460484
H	1.728108	2.538115	-0.675534
H	2.943197	2.013278	-1.86804
H	3.365914	0.224927	2.074925
H	3.794677	2.001374	1.773059
