18

C	2.383151	-0.545583	-1.526684
C	2.499481	-0.0566	-0.091584
C	3.414828	1.135675	0.043187
O	2.943784	2.283996	-0.669537
C	3.196112	3.136979	0.442683
C	3.442934	1.939019	1.367459
N	4.586874	1.992697	2.22533
H	1.681511	-1.388917	-1.613389
H	3.359218	-0.877473	-1.915252
H	2.025117	0.267459	-2.175876
H	2.878151	-0.858062	0.568125
H	1.505212	0.230013	0.293116
H	4.444742	0.866666	-0.281312
H	4.102645	3.759568	0.303188
H	2.346699	3.80212	0.673782
H	2.551764	1.707618	1.97417
H	5.444195	2.097017	1.685653
H	4.679273	1.143928	2.778202
