18

C	3.196453	-1.087604	0.373075
C	2.381513	0.055155	0.954722
C	2.911269	1.443228	0.586513
C	2.037799	2.559154	1.142836
N	4.289278	1.617992	1.009402
C	5.335472	1.672128	0.148701
O	5.26167	1.589456	-1.056083
H	2.758603	-2.063344	0.632237
H	4.228702	-1.073177	0.754415
H	3.255063	-1.017421	-0.723995
H	2.338486	-0.029736	2.05682
H	1.335927	-0.011489	0.608488
H	2.945615	1.521941	-0.512291
H	2.005767	2.525453	2.245279
H	1.003699	2.464798	0.779238
H	2.420343	3.544964	0.840114
H	4.484357	1.685378	2.001423
H	6.307413	1.810155	0.684486
