20

C	1.103865	-0.085528	0.301545
N	2.491256	0.099898	-0.038533
C	2.945667	1.46607	0.056432
C	4.416899	1.595876	-0.305733
C	4.938221	3.001953	-0.159712
C	6.11946	3.469944	-0.956246
C	4.749932	4.001858	-1.264215
H	0.817554	-1.140177	0.16885
H	0.393949	0.536989	-0.287627
H	0.941981	0.162912	1.364136
H	2.673294	-0.257755	-0.973743
H	2.8014	1.804488	1.099332
H	2.351872	2.172123	-0.570536
H	4.566987	1.263515	-1.34979
H	4.997066	0.901738	0.325066
H	4.864504	3.403092	0.858482
H	6.567254	2.76528	-1.66386
H	6.841372	4.136585	-0.476725
H	4.519736	5.038055	-1.002311
H	4.262983	3.655212	-2.181072
