19

C	0.823394	-0.4682	0.211555
C	2.316622	-0.358503	-0.084122
C	2.764886	-1.484565	-1.010352
C	2.696091	1.00173	-0.671673
C	2.452501	2.197222	0.237377
N	2.857827	3.425169	-0.418475
H	0.486763	0.277787	0.947246
H	0.569964	-1.462132	0.612482
H	0.232013	-0.321066	-0.70792
H	2.860429	-0.472694	0.873232
H	2.253308	-1.416241	-1.984666
H	2.533388	-2.473429	-0.583971
H	3.848817	-1.444586	-1.201444
H	2.153937	1.167439	-1.619572
H	3.768912	0.982382	-0.938477
H	2.953817	2.007228	1.213187
H	1.375831	2.275235	0.463084
H	3.861141	3.417009	-0.595141
H	2.67929	4.230406	0.177228
