14

C	0.989303	-0.074646	0.168389
N	2.398741	0.103872	0.425591
C	2.911597	1.395232	0.025616
C	2.506534	2.432968	1.084111
O	1.986251	3.481355	0.834994
C	4.370156	1.392746	-0.044557
C	5.579958	1.409215	-0.084826
H	0.674166	-1.071612	0.508879
H	0.701411	0.036223	-0.898876
H	0.401492	0.660863	0.740889
H	2.955064	-0.640388	0.016878
H	2.508813	1.764701	-0.943795
H	2.738775	2.094752	2.126456
H	6.653917	1.424631	-0.126919
