22

C	0.96819	1.783403	1.050753
N	2.4052	1.807904	1.148302
C	3.084793	1.209276	0.025579
C	4.608684	1.417356	0.045939
C	5.210767	0.79532	1.309822
C	5.201301	0.725641	-1.183071
C	4.925417	2.913106	0.005577
H	0.518842	2.212248	1.959633
H	0.530704	0.770668	0.901938
H	0.637064	2.403855	0.201086
H	2.701033	1.36144	2.012111
H	2.686008	1.672148	-0.895324
H	2.877386	0.116725	-0.072383
H	4.866558	1.310556	2.221064
H	6.31008	0.870139	1.294938
H	4.948222	-0.272518	1.394836
H	4.778952	1.137268	-2.114043
H	4.998785	-0.358043	-1.171301
H	6.293897	0.863766	-1.222208
H	4.564019	3.365113	-0.932335
H	6.011379	3.090091	0.068841
H	4.42996	3.43211	0.838405
