15

C	0.998316	2.788561	1.400199
N	2.346599	2.730288	0.920761
C	2.693628	1.737636	0.208394
N	3.96807	1.567444	-0.240577
C	4.950777	2.603635	-0.026044
C	6.284911	2.172412	-0.424273
C	7.390456	1.813049	-0.762287
H	0.980777	2.788187	2.504266
H	0.355652	1.950593	1.054633
H	0.518966	3.731562	1.085132
H	2.0039	0.920859	-0.089356
H	4.135223	0.903202	-0.983278
H	4.939327	2.876616	1.042748
H	4.682708	3.535346	-0.562712
H	8.373589	1.496679	-1.058846
