15

O	5.013086	-0.929909	-0.55021
C	3.667244	-1.22298	-0.290831
C	2.875201	0.036874	-0.179892
C	3.413716	1.245897	-0.334512
O	2.671587	2.37577	-0.223479
C	3.271662	3.571241	-0.415324
C	2.61322	4.723976	-0.304065
H	5.495899	-1.757116	-0.62631
H	3.54787	-1.803431	0.649873
H	3.223491	-1.853779	-1.092259
H	1.807156	-0.050544	0.039323
H	4.478172	1.379282	-0.556708
H	4.337903	3.522773	-0.671906
H	1.552496	4.743975	-0.046699
H	3.137837	5.664201	-0.471431
