13

C	0.167044	0.453549	0.273406
C	0.773362	-0.895555	0.101347
C	-0.155206	-2.070932	0.249241
O	-1.322924	-1.910063	0.503165
N	2.028932	-0.99318	-0.159502
N	2.495871	-2.288049	-0.301592
C	3.751254	-2.323151	-0.50223
H	0.929968	1.230092	0.142782
H	-0.292651	0.538394	1.270373
H	-0.650668	0.599416	-0.449489
H	0.298239	-3.073976	0.108918
H	4.229118	-3.300637	-0.630644
H	4.357522	-1.403921	-0.547294
