13

N	1.140904	-0.219214	0.367074
C	2.465317	-0.318441	0.109257
N	3.167087	-1.340899	-0.210627
C	3.169559	1.025936	0.232346
O	2.525207	2.008997	0.54157
C	4.622652	1.045072	-0.039908
C	5.306396	2.190628	0.047105
H	0.782948	0.69344	0.620514
H	0.529553	-1.020297	0.34151
H	2.598674	-2.190312	-0.266452
H	5.080852	0.091833	-0.308567
H	4.789719	3.115952	0.321468
H	6.380134	2.235604	-0.150921
