15

C	1.453807	-0.425668	-0.887043
N	2.861424	-0.247098	-0.658746
N	3.329853	0.961628	-0.492413
C	4.552961	1.143696	-0.099281
C	5.532213	0.061498	0.219127
C	4.953889	2.549616	0.01293
O	6.048802	2.923167	0.368687
H	1.282343	-1.374137	-1.416973
H	1.091756	0.399208	-1.515535
H	0.864377	-0.434249	0.048179
H	3.401682	-1.046889	-0.330113
H	5.178451	-0.590473	1.037917
H	6.477797	0.523325	0.532166
H	5.72964	-0.580062	-0.657836
H	4.136715	3.261878	-0.263525
