18

C	1.942863	2.209551	-2.000579
O	3.22486	2.128076	-1.458981
C	3.287575	1.448537	-0.238575
C	4.717674	1.411143	0.235403
N	5.793605	1.291827	-0.732697
C	5.626789	2.55068	-0.00935
C	6.713161	2.935589	0.953333
H	2.013316	2.747935	-2.955934
H	1.247052	2.760439	-1.336715
H	1.509752	1.207834	-2.192046
H	2.906328	0.41102	-0.355588
H	2.649329	1.941191	0.525316
H	4.853635	0.819692	1.151122
H	5.393307	1.391158	-1.666711
H	5.182228	3.377474	-0.578443
H	7.096721	2.046633	1.475141
H	6.343572	3.651868	1.704691
H	7.558645	3.403762	0.424812
