17

C	1.036755	-0.742442	-0.836133
N	2.273269	-0.516845	-0.126259
C	2.880647	-1.667466	0.496898
C	2.809022	0.717302	0.109228
O	3.815596	0.881663	0.777801
C	2.100198	1.927256	-0.498311
N	2.105904	1.89965	-1.949763
H	0.866736	0.061582	-1.563177
H	0.174031	-0.830238	-0.149492
H	1.110377	-1.686487	-1.399173
H	2.20054	-2.121541	1.239714
H	3.79806	-1.346165	1.0036
H	3.126084	-2.434006	-0.257345
H	2.61095	2.795256	-0.044271
H	1.053217	1.945031	-0.148349
H	3.063286	1.913818	-2.296294
H	1.652348	2.731591	-2.320702
