
 OpenBabel05092213403D

 21 22  0  0  1  0  0  0  0  0999 V2000
    0.8552   -0.0722   -0.0814 C   0  0  0  0  0  0  0  0  0  0  0  0
    2.3503    0.0708    0.1952 C   0  0  0  0  0  0  0  0  0  0  0  0
    2.5948    0.1799    1.7068 C   0  0  0  0  0  0  0  0  0  0  0  0
    3.1709   -1.0680   -0.4299 C   0  0  0  0  0  0  0  0  0  0  0  0
    4.5258   -0.5774   -0.6148 N   0  0  0  0  0  0  0  0  0  0  0  0
    5.0879   -0.6489   -1.8664 C   0  0  0  0  0  0  0  0  0  0  0  0
    5.0581   -1.5194   -2.7041 O   0  0  0  0  0  0  0  0  0  0  0  0
    5.5418    0.8150   -1.8137 C   0  0  0  0  0  0  0  0  0  0  0  0
    4.7323    0.8839   -0.5211 C   0  0  3  0  0  0  0  0  0  0  0  0
    3.0423    1.5829   -0.6172 S   0  0  0  0  0  0  0  0  0  0  0  0
    0.4613   -0.9733    0.4046 H   0  0  0  0  0  0  0  0  0  0  0  0
    0.6380   -0.1596   -1.1515 H   0  0  0  0  0  0  0  0  0  0  0  0
    0.2898    0.7808    0.3116 H   0  0  0  0  0  0  0  0  0  0  0  0
    2.1717   -0.6853    2.2292 H   0  0  0  0  0  0  0  0  0  0  0  0
    2.1274    1.0789    2.1247 H   0  0  0  0  0  0  0  0  0  0  0  0
    3.6609    0.2098    1.9581 H   0  0  0  0  0  0  0  0  0  0  0  0
    2.7539   -1.3677   -1.4009 H   0  0  0  0  0  0  0  0  0  0  0  0
    3.2039   -1.9568    0.2084 H   0  0  0  0  0  0  0  0  0  0  0  0
    5.2043    1.4275   -2.6506 H   0  0  0  0  0  0  0  0  0  0  0  0
    6.6227    0.9273   -1.6790 H   0  0  0  0  0  0  0  0  0  0  0  0
    5.2960    1.1690    0.3722 H   0  0  0  0  0  0  0  0  0  0  0  0
  1  2  1  0  0  0  0
  1 11  1  0  0  0  0
  1 12  1  0  0  0  0
  1 13  1  0  0  0  0
  2  3  1  0  0  0  0
  2  4  1  0  0  0  0
  2 10  1  0  0  0  0
  3 14  1  0  0  0  0
  3 15  1  0  0  0  0
  3 16  1  0  0  0  0
  4  5  1  0  0  0  0
  4 17  1  0  0  0  0
  4 18  1  0  0  0  0
  5  6  1  0  0  0  0
  5  9  1  0  0  0  0
  6  7  2  0  0  0  0
  6  8  1  0  0  0  0
  8  9  1  0  0  0  0
  8 19  1  0  0  0  0
  8 20  1  0  0  0  0
  9 10  1  0  0  0  0
  9 21  1  0  0  0  0
M  END
$$$$
