17

O      -0.112778    1.367933    0.033483
C      -0.007376   -0.017205    0.045792
C      -0.496851   -0.719167    1.256296
C       0.996929   -0.775191    0.903694
C       1.567796   -1.883954    0.056045
O       2.529643   -2.555309    0.345467
C       0.890716   -1.889469   -1.298287
C      -0.607719   -2.133677   -1.387648
C      -0.084358   -0.731242   -1.312779
H       0.636550    1.723448   -0.458116
H      -0.712247   -0.079679    2.105405
H      -1.120647   -1.601548    1.195541
H       1.676260   -0.294687    1.597553
H       1.509109   -2.177173   -2.139915
H      -0.963693   -2.476765   -2.353375
H      -1.136265   -2.574790   -0.552399
H      -0.194086   -0.081725   -2.173659
