22

C       0.050079    1.577565    0.153339
C      -0.030502    0.055406    0.008041
C       0.727225   -0.474695   -1.213037
C       0.651347   -2.005607   -1.361742
C       1.406357   -2.533284   -2.547985
C       0.862561   -3.039834   -3.708100
N       1.889787   -3.388404   -4.550518
C       3.091284   -3.115262   -3.949377
C       2.825396   -2.584742   -2.709689
H       1.089006    1.910658    0.255871
H      -0.371063    2.081578   -0.723795
H      -0.499452    1.926776    1.033416
H       0.365535   -0.420863    0.915154
H      -1.083315   -0.251128   -0.057168
H       0.332871   -0.008098   -2.125350
H       1.780531   -0.170668   -1.151467
H       1.032675   -2.467263   -0.440532
H      -0.401491   -2.305773   -1.437072
H      -0.167151   -3.181296   -3.997024
H       1.777485   -3.792733   -5.462887
H       4.023675   -3.324630   -4.448795
H       3.563775   -2.269003   -1.987483
