15

O       0.103918    1.408936    0.119722
C       0.024866    0.022191    0.014274
C      -1.405053   -0.648470   -0.081892
N      -2.224701    0.117914   -1.030167
C      -1.534280    0.535950   -2.139749
N      -0.335611    0.174526   -2.426605
C       0.321052   -0.648802   -1.374832
C      -0.668778   -1.720894   -0.918157
O      -0.765567   -2.906729   -1.033906
H       0.127541    1.767047   -0.776936
H       0.610357   -0.439048    0.813505
H      -1.970856   -0.926512    0.804815
H      -2.940140    0.726379   -0.658599
H      -2.075393    1.195572   -2.816906
H       1.336656   -0.907942   -1.668435
