19

O       0.047355   -0.135899    0.208126
C      -0.064498    1.064148    0.116092
C      -1.292309    1.918358    0.438159
C      -0.934484    3.319922   -0.076181
C       0.618872    3.342934   -0.108928
N       0.933161    1.931554   -0.281796
C       1.163660    4.231933   -1.212329
C       2.415537    3.929393   -1.944737
N       1.106232    3.806976   -2.615912
H      -2.191015    1.488087   -0.007141
H      -1.427331    1.896076    1.525718
H      -1.309421    3.458502   -1.094671
H      -1.334779    4.128927    0.537751
H       1.008221    3.714834    0.852208
H       1.882193    1.588743   -0.277182
H       0.904128    5.279524   -1.065009
H       3.045041    4.738555   -2.303564
H       2.956072    3.017724   -1.703414
H       0.849731    2.820449   -2.643606
