15

C      -0.059999    1.451096   -0.119498
N       0.146716    0.021011    0.062111
C       0.646592   -0.745481   -0.952385
C       0.688800   -2.099336   -1.154572
C       1.420344   -2.216088   -2.368836
N       1.815830   -3.394344   -2.984756
N       1.773646   -1.051995   -2.873204
O       1.272585   -0.097975   -1.941413
H       0.872020    1.914031   -0.448568
H      -0.838189    1.686487   -0.858736
H      -0.341377    1.885895    0.841832
H      -0.533736   -0.451291    0.635466
H       0.300387   -2.882683   -0.526349
H       1.122104   -4.127594   -2.945987
H       2.139176   -3.242703   -3.931454
