21

C      -0.076447    1.485554    0.041403
C      -0.032513    0.030042    0.013809
C      -0.003845   -1.175360   -0.003912
C       0.038011   -2.615419   -0.030234
C      -0.469397   -3.351475    1.204813
C      -1.296486   -3.352564   -0.048437
C       1.183624   -3.245416   -0.785744
C       1.728871   -2.633559   -2.050444
C       2.560483   -2.632737   -0.790114
H       0.787026    1.916671   -0.477277
H      -0.978999    1.869778   -0.447325
H      -0.067146    1.867831    1.068456
H       0.052606   -4.261717    1.480380
H      -0.805736   -2.751622    2.041931
H      -2.198889   -2.753437   -0.069075
H      -1.343885   -4.263559   -0.635639
H       1.147715   -4.331506   -0.761330
H       2.011109   -3.296232   -2.861154
H       1.306882   -1.685939   -2.366175
H       2.684229   -1.684589   -0.278789
H       3.417255   -3.294844   -0.730092
