20

C       0.926441    0.557097   -1.972070
C       0.359723   -0.481145   -1.025515
C      -1.159884   -0.495313   -0.949014
O      -1.648135    0.657229   -0.282223
C       1.106196   -1.733977   -0.716344
N       0.940205   -0.706111    0.311393
C       2.097387    0.063225    0.797737
C       3.379630   -0.090334    0.105826
C       4.442118   -0.243923   -0.437040
H       2.016023    0.600889   -1.942863
H       0.624080    0.328092   -2.999771
H       0.523154    1.544492   -1.724366
H      -1.596248   -0.478785   -1.953700
H      -1.493257   -1.415396   -0.447641
H      -1.258132    0.627468    0.599707
H       0.580197   -2.668821   -0.535168
H       2.093045   -1.842882   -1.159649
H       1.815558    1.123123    0.811791
H       2.246750   -0.226247    1.845739
H       5.382073   -0.366603   -0.916416
