17

C      -0.239413    1.435711    0.034893
N       0.029847    0.002355    0.051971
C       1.193562   -0.481058   -0.810909
C       2.180390   -0.046477    0.323818
C       0.942459   -0.501513    1.158483
C       0.909706   -2.003506    0.803297
C       1.079572   -1.978519   -0.529138
C       0.723475   -3.077910    1.695007
N       0.576139   -3.940489    2.455599
H       0.631435    2.101625    0.148107
H      -0.731733    1.682889   -0.911267
H      -0.944305    1.662697    0.841295
H       1.257510   -0.135126   -1.841389
H       3.116381   -0.597405    0.439648
H       2.362965    1.028648    0.357676
H       0.744114   -0.199268    2.185373
H       1.109979   -2.791505   -1.238500
