18

C      -0.087307    1.581263    0.071116
C       1.433503    1.465957    0.010636
C       1.938458    0.503626    1.128200
C       2.433118   -0.446124    0.013850
C       2.148970   -1.840528    0.464683
C       1.116014   -1.777426    1.314263
C       0.650770   -0.346631    1.390873
C       0.032098    0.044148    0.001043
N       1.301557    0.204122   -0.843324
H      -0.559802    2.015172    0.956286
H      -0.497063    2.020538   -0.841040
H       2.097540    2.255005   -0.343613
H       2.549306    0.794363    1.984920
H       3.390305   -0.236046   -0.462889
H       2.645881   -2.729342    0.097657
H       0.598023   -2.609532    1.775644
H       0.032355   -0.074071    2.246823
H      -0.751515   -0.599099   -0.396826
