16

C       0.044392    1.801904    0.223435
C      -0.140277    0.280804   -0.000117
C       0.455141   -0.436027    1.233533
O       1.481895   -1.051960    1.253830
N      -1.559490   -0.034775    0.008839
C      -2.110909   -0.578548   -1.006515
N      -3.444992   -0.837846   -1.047320
C       0.579225   -0.130261   -1.220310
N       1.064738   -0.452136   -2.218430
H       1.103673    2.063035    0.289387
H      -0.411472    2.349243   -0.604759
H      -0.463488    2.088078    1.147945
H      -0.195625   -0.307442    2.123925
H      -1.579858   -0.843538   -1.927191
H      -3.796958   -1.476701   -1.738708
H      -3.966611   -0.755894   -0.188613
