17

C       0.013355    1.441180    0.048238
N       0.007036   -0.004030   -0.058909
C       0.520394   -0.659230    0.888524
N       0.568872   -2.079304    0.888653
C       0.021271   -2.763506   -0.213054
O      -0.008729   -3.960049   -0.349087
C       1.180825   -2.695128    2.029078
C       1.257040   -4.198250    2.077190
O       1.615165   -1.994973    2.913519
H       0.545809    1.865036   -0.810260
H      -1.016392    1.811849   -0.000768
H       0.479612    1.814288    0.972551
H       0.972281   -0.239029    1.788051
H      -0.380807   -2.047253   -0.941419
H       1.810405   -4.593611    1.223065
H       1.750815   -4.461618    3.012621
H       0.262794   -4.646388    2.025149
