16

C      -0.069514    1.498562    0.022799
C      -0.028656   -0.002536   -0.028420
C      -0.054275   -0.700867   -1.229130
C      -0.010225   -2.085643   -1.115817
F      -0.031142   -2.818560   -2.220779
N       0.051399   -2.737275    0.018000
C       0.071647   -1.974566    1.127462
C       0.142146   -2.702825    2.439275
N       0.034578   -0.643942    1.152612
H       0.819344    1.879093    0.535652
H      -0.120639    1.939563   -0.974984
H      -0.936352    1.829101    0.603504
H      -0.104977   -0.213865   -2.193799
H       1.041453   -3.325714    2.476715
H       0.152406   -1.993406    3.266416
H      -0.714176   -3.376825    2.542510
