19

N       0.103206   -1.121694    0.118666
C       0.058847    0.026655    0.234932
C      -0.012005    1.487927    0.357317
N       1.304034    2.078979    0.147788
C       1.775750    2.143755   -1.294146
C       0.934979    3.432265   -1.497631
C       1.306331    3.588830    0.000935
C       2.826279    3.831307   -0.048162
C       3.194673    2.695810   -1.064224
H      -0.813185    1.834485   -0.318884
H      -0.337948    1.729232    1.376298
H       1.657960    1.247225   -1.902705
H       1.293032    4.184324   -2.206624
H      -0.124560    3.244046   -1.672113
H       0.709896    4.166327    0.708773
H       3.073921    4.832464   -0.409635
H       3.288243    3.683814    0.929303
H       3.851434    1.941664   -0.628161
H       3.647872    3.070474   -1.985248
