13

C       0.114415   -1.191020   -0.005253
C       0.020165    0.009776    0.002672
C      -0.074601    1.412091    0.011768
C      -1.188916    2.255905    0.031905
C      -0.713113    3.598495    0.032754
C       0.658451    3.543009    0.013423
N       1.030727    2.225958    0.000955
C      -2.540264    1.836603    0.048321
N      -3.651454    1.509578    0.061919
H       0.178290   -2.251227   -0.011949
H      -1.323190    4.486769    0.046143
H       1.395565    4.329049    0.007561
H       1.975465    1.880220   -0.014070
