21

O       0.235139    1.288657   -0.542425
C       0.070826   -0.045171   -0.109722
C       0.298135   -0.418044    1.391421
C      -1.065732   -1.174698    1.387758
C      -2.325715   -0.472053    1.988618
C      -2.160428    0.873160    2.736575
C      -2.190415    1.628644    1.370095
C      -2.513401    0.289429    0.632686
C      -1.379006   -0.561476   -0.023597
H       1.178133    1.476396   -0.587896
H       0.652257   -0.724746   -0.750659
H       1.177488   -1.036993    1.587482
H       0.338451    0.450098    2.052651
H      -0.995654   -2.251308    1.546589
H      -3.073243   -1.168958    2.373516
H      -3.028832    1.100680    3.360988
H      -1.267264    0.994059    3.356767
H      -2.990118    2.369192    1.291342
H      -1.257708    2.101395    1.066322
H      -3.458801    0.276945    0.088151
H      -1.724652   -1.167684   -0.863416
