17

O       0.035357    1.277509   -0.565010
C      -0.141407    0.074305    0.156159
C      -1.593207   -0.376393    0.131491
O      -1.934128   -0.562538   -1.236715
C      -3.285123   -0.830822   -1.451205
C      -4.262581    0.314736   -1.520009
C      -3.843622   -0.426704   -2.775414
H      -0.389593    1.130970   -1.418304
H       0.492337   -0.732866   -0.244760
H       0.169131    0.264647    1.188695
H      -1.723482   -1.312978    0.696776
H      -2.238087    0.392978    0.580031
H      -3.627040   -1.766956   -1.008342
H      -5.265944    0.171454   -1.134566
H      -3.858517    1.311418   -1.381393
H      -3.166338    0.086290   -3.448675
H      -4.554414   -1.085614   -3.260831
