13

N      -0.052102   -1.121320    0.324050
C      -0.012139    0.012257    0.110097
C       0.040699    1.444735   -0.190547
N       1.327129    2.002495    0.205442
C       1.516803    3.364731    0.105950
N       2.690720    3.893202   -0.142003
O       2.497115    5.254156   -0.079171
N       1.203041    5.561375    0.185531
C       0.577876    4.424125    0.305637
H      -0.188049    1.582484   -1.259268
H      -0.756425    1.939627    0.374807
H       2.126628    1.470783   -0.113029
H      -0.477376    4.394525    0.525532
