20

C      -0.086919    1.355095    0.329040
N      -0.026863   -0.045609   -0.011734
C      -1.136288   -0.745040   -0.633183
C      -0.675112   -2.203996   -0.633888
C      -1.474012   -3.247674    0.104720
C      -1.417675   -3.254409   -1.405895
C       0.840706   -2.158429   -0.523163
C       1.134228   -0.773250    0.058068
O       2.196350   -0.368919    0.484241
H       0.883534    1.635483    0.742129
H      -0.295000    1.973793   -0.554204
H      -0.869042    1.546975    1.073617
H      -2.062253   -0.599110   -0.062248
H      -1.317152   -0.367192   -1.652931
H      -0.930022   -4.019258    0.639836
H      -2.402365   -2.945561    0.578937
H      -2.308640   -2.955358   -1.949732
H      -0.841070   -4.032533   -1.895276
H       1.267837   -2.936381    0.113443
H       1.337023   -2.225121   -1.499656
