16

N       0.041783   -1.162166   -0.151988
C       0.028417   -0.006472   -0.118399
C       0.027556    1.439606   -0.113443
O       0.367590    2.082658    1.114746
C       1.303448    2.192520    0.032631
C       2.679868    1.539324    0.181409
C       3.656016    2.488806   -0.563168
C       2.803862    3.681697   -0.923081
C       1.520895    3.516509   -0.602069
H      -0.799642    1.888461   -0.661367
H       2.916481    1.476973    1.246832
H       2.696190    0.521345   -0.213607
H       4.516064    2.773915    0.053037
H       4.069954    2.020709   -1.464676
H       3.214614    4.561806   -1.405182
H       0.713676    4.220144   -0.763783
