20

C       0.204205    1.587333    0.099929
C      -0.146893    0.112910   -0.170564
C       0.555534   -0.443354   -1.322858
C       1.159555   -0.873981   -2.272182
C       1.867330   -1.436114   -3.421324
C       2.078819   -2.956058   -3.285372
N       1.152225   -1.100447   -4.657965
C       1.800257   -0.886735   -5.830423
O       3.001013   -0.978839   -5.985364
H       1.274256    1.702754    0.291577
H      -0.053195    2.212341   -0.759375
H      -0.344783    1.955543    0.971596
H       0.085148   -0.489485    0.717034
H      -1.229368    0.014615   -0.323414
H       2.852814   -0.966067   -3.517141
H       2.634940   -3.322559   -4.151531
H       2.647457   -3.178186   -2.378314
H       1.118125   -3.475307   -3.227903
H       0.152542   -0.984675   -4.613655
H       1.102027   -0.613738   -6.646500
