14

N      -0.000117    1.354245    0.015969
C      -0.113209   -0.028995    0.014169
C      -1.201596   -0.846051    0.089613
C      -0.708485   -2.198494    0.042505
C       0.642193   -2.048443   -0.057563
O       1.337717   -3.186124   -0.118102
C       0.348641   -4.165618   -0.051395
C      -0.898192   -3.626301    0.046123
O       1.084259   -0.793535   -0.081252
H       0.536436    1.705673    0.802878
H       0.412618    1.717955   -0.837254
H      -2.216291   -0.489846    0.168349
H       0.719015   -5.175362   -0.086744
H      -1.816505   -4.188646    0.110749
