19

O       0.153847    1.265305   -0.365680
C       0.078672   -0.125284   -0.151526
C      -1.358185   -0.556770    0.148003
O      -2.219384   -0.076602   -0.894399
C      -1.503305   -2.063228    0.360619
C      -2.927356   -2.455462    0.741237
O      -3.008699   -3.871699    0.940277
C      -3.810121   -4.585249    0.127699
O      -3.926018   -5.770214    0.209498
H      -0.621150    1.489302   -0.897110
H       0.447272   -0.692978   -1.027022
H       0.734560   -0.366769    0.691893
H      -1.696386   -0.016975    1.040958
H      -1.990208   -0.550811   -1.703673
H      -1.212318   -2.597782   -0.554250
H      -0.815676   -2.392544    1.147733
H      -3.221932   -1.980974    1.682967
H      -3.634476   -2.136030   -0.032702
H      -4.341669   -3.952455   -0.611064
