19

C      -0.742061    0.878384    0.309224
O       0.082136   -0.238923    0.074230
C       0.864430   -0.145286   -1.115674
C       1.801769   -1.364784   -1.168021
C       1.088559   -2.403400   -2.084978
C       0.139342   -1.524395   -2.886734
C       0.033779   -0.300921   -2.376546
C       1.999489   -3.194682   -2.904171
C       2.751917   -3.841598   -3.582997
H      -0.161714    1.815117    0.329417
H      -1.536291    0.982913   -0.444677
H      -1.209562    0.734948    1.286687
H       1.421515    0.804818   -1.091765
H       2.750805   -1.080897   -1.628417
H       2.002957   -1.746776   -0.165974
H       0.493103   -3.096150   -1.472532
H      -0.384149   -1.904032   -3.756595
H      -0.603510    0.483579   -2.767596
H       3.415420   -4.415662   -4.180822
