19

C       0.074470    1.418670   -0.292165
C       0.054543   -0.096065   -0.002406
N       0.739059   -0.427661    1.224997
C       2.106038   -0.500450    1.266201
N       2.626715   -0.946247    2.472434
O       2.816324   -0.145134    0.338324
C      -1.371221   -0.643742    0.083567
C      -2.265183   -0.444857   -1.122080
O      -1.765257   -1.204920    1.083705
H       1.115973    1.742690   -0.320306
H      -0.387049    1.649256   -1.256558
H      -0.449364    1.970923    0.494116
H       0.552704   -0.597738   -0.844924
H       0.155670   -0.861904    1.926017
H       2.070447   -1.561890    3.045313
H       3.601423   -1.195079    2.409449
H      -2.632523    0.587466   -1.139800
H      -1.724150   -0.611659   -2.058066
H      -3.121013   -1.117262   -1.052327
