20

C       0.109349    1.521824    0.173544
C      -0.022126    0.020862   -0.121209
C      -1.437645   -0.470831   -0.051287
C      -2.205756   -0.846579    1.214969
C      -3.622882   -0.311701    1.180515
C      -3.844638   -0.401267   -0.312597
C      -2.576720   -0.182888   -1.053238
N      -3.126274   -1.571299   -0.913635
C      -2.033014   -1.845451    0.096966
H       1.150881    1.849032    0.098579
H      -0.478513    2.116707   -0.533721
H      -0.248765    1.756455    1.181163
H       0.390439   -0.195023   -1.115803
H       0.588729   -0.549620    0.589570
H      -1.654619   -0.983252    2.137514
H      -4.322534   -0.938623    1.743898
H      -3.704175    0.718535    1.544084
H      -4.804979   -0.181572   -0.765796
H      -2.478420    0.295075   -2.021907
H      -1.597125   -2.833048    0.172531
