18

C      -0.078422    1.375832   -0.057214
N      -0.018027   -0.062484   -0.038873
C      -1.174513   -0.923261   -0.028628
C      -0.566982   -2.308032   -0.011387
C      -1.411176   -3.537838    0.003577
O      -0.576175   -4.676805    0.017490
C       0.764684   -2.212441   -0.012249
C       1.166695   -0.777979   -0.029910
O       2.283121   -0.297798   -0.035732
H       0.950890    1.740571   -0.061809
H      -0.593800    1.749840   -0.951596
H      -0.593875    1.772523    0.827296
H      -1.811175   -0.745764    0.852841
H      -1.810501   -0.767670   -0.914724
H      -2.075230   -3.508876    0.885969
H      -2.075185   -3.530381   -0.879294
H      -1.133267   -5.460130    0.026923
H       1.479875   -3.020171   -0.002137
