18

C       0.037864    1.621600    0.043361
C       0.067842    0.090357    0.026455
C       0.822098   -0.576727   -1.114921
C       2.337106   -0.503477   -1.127269
O       2.979574    0.453246   -0.343751
C       1.641177   -1.667483   -0.470572
O       1.517546   -1.571230    0.934545
C       0.701587   -0.512503    1.273802
N       0.504934   -0.124560    2.456096
H       1.052143    2.023067    0.034843
H      -0.500094    2.004023   -0.829380
H      -0.468650    1.968050    0.947294
H      -0.966352   -0.278703   -0.004126
H       0.310733   -0.733541   -2.056881
H       2.811161   -0.703217   -2.088095
H       3.561082   -0.001718    0.275450
H       1.731208   -2.690480   -0.814309
H       1.036904   -0.689020    3.119903
