17

N       0.086031    1.345472   -0.042540
C      -0.000759   -0.023977   -0.006053
C      -1.187783   -0.680041   -0.009869
C      -1.311114   -2.123873    0.082313
O      -2.373081   -2.701600    0.258016
C      -0.037157   -2.915375   -0.057738
N       0.731484   -2.676317   -1.308786
C       1.276931   -2.219524   -0.029845
C       1.329780   -0.720145    0.162881
H       0.954972    1.755662   -0.344144
H      -0.736400    1.857830   -0.320842
H      -2.120353   -0.125347   -0.060928
H      -0.111013   -3.934385    0.309675
H       1.181008   -3.544448   -1.589593
H       2.121809   -2.762467    0.387479
H       2.055805   -0.290324   -0.541446
H       1.705165   -0.491249    1.169237
