17

C       0.254894    1.298570   -0.140729
N       0.137934   -0.141065   -0.004527
C       0.711639   -0.795866    1.049171
N       0.962244   -2.094455    1.106737
C       1.483971   -2.250261    2.362981
C       1.891214   -3.611486    2.842333
O       2.496783   -4.361499    1.807159
N       1.579231   -1.150446    3.078719
N       1.067130   -0.209731    2.215063
H       1.296230    1.652505   -0.168780
H      -0.240654    1.606525   -1.062843
H      -0.260369    1.801860    0.685677
H       0.166745   -0.681640   -0.854945
H       2.608505   -3.513981    3.661892
H       1.003895   -4.132638    3.240515
H       2.014310   -4.137293    1.001515
H       1.020441    0.753871    2.495609
