21

C       0.027946    1.496547   -0.197266
C      -0.034387   -0.017147   -0.014799
O       0.754859   -0.447127    1.089484
C      -1.476192   -0.596489    0.105097
C      -1.397902   -2.125422    0.130092
C      -2.217646   -0.042196    1.324614
O      -2.105382   -0.135722   -1.130964
C      -3.365266   -0.487735   -1.427677
O      -3.911364   -0.123680   -2.428558
H       1.065015    1.801203   -0.362363
H      -0.573160    1.812035   -1.051572
H      -0.341359    2.022867    0.691446
H       0.409945   -0.493418   -0.896894
H       0.694316    0.222894    1.777648
H      -0.729949   -2.432499    0.937422
H      -2.375231   -2.586882    0.295815
H      -0.992363   -2.498755   -0.814793
H      -2.373081    1.035952    1.239112
H      -3.193472   -0.517698    1.454100
H      -1.635137   -0.245535    2.227754
H      -3.842618   -1.134625   -0.671696
