23

C       0.315281    1.501263   -0.278221
C       0.109828    0.015263    0.028078
C      -1.325852   -0.455445   -0.237156
C      -1.536237   -1.937895    0.032607
C      -1.428074   -2.502037    1.477418
O      -1.899641   -1.502485    2.383565
C      -2.541286   -3.519705    1.113058
C      -2.973297   -2.556243   -0.032340
O      -4.008485   -1.668824    0.329567
H       1.345004    1.813621   -0.076946
H       0.099245    1.723179   -1.329398
H      -0.347309    2.124633    0.332380
H       0.809121   -0.582446   -0.572336
H       0.360779   -0.179322    1.078025
H      -2.018379    0.132177    0.373519
H      -1.594710   -0.250734   -1.282351
H      -0.875259   -2.535122   -0.607453
H      -0.457395   -2.892484    1.806529
H      -2.028921   -1.918497    3.242472
H      -2.130925   -4.461254    0.736562
H      -3.292853   -3.730670    1.879421
H      -3.275176   -3.007227   -0.980804
H      -3.747783   -1.273694    1.172164
