18

C       1.359042   -0.163086    0.206083
C      -0.114381   -0.450935    0.195262
C      -0.854735   -0.552986    1.507812
O      -0.301559   -1.498251    2.413636
C      -0.565245   -2.855867    2.096950
C       0.344593   -3.440216    1.108398
C       1.101113   -3.945069    0.322605
N      -0.839581   -0.590091   -0.848003
O      -0.100874   -0.421184   -2.026661
H       1.784455   -0.410712    1.179890
H       1.865884   -0.738108   -0.571071
H       1.542765    0.898197   -0.000736
H      -0.789167    0.404586    2.038644
H      -1.912433   -0.767092    1.304676
H      -0.467147   -3.403020    3.041348
H      -1.605068   -2.975334    1.755831
H       1.761609   -4.384719   -0.383358
H      -0.762063   -0.591392   -2.705845
