21

C       0.408077    0.965197    0.913982
C      -0.075720   -0.123792   -0.052931
N       0.860410   -0.200892   -1.175224
C       0.460733   -0.268648   -2.477820
O      -0.680939   -0.427477   -2.850651
C      -0.285707   -1.480776    0.641430
C      -1.229991   -1.446490    1.827637
C      -0.209921   -2.722648   -0.163263
N       0.860084   -2.395887    0.806258
H       1.357411    0.681808    1.384225
H       0.552494    1.909034    0.380739
H      -0.316704    1.136774    1.711683
H      -1.036400    0.173912   -0.486679
H       1.820128    0.059177   -1.004997
H       1.317593   -0.171633   -3.174494
H      -2.197253   -1.014589    1.545851
H      -1.402171   -2.459800    2.196970
H      -0.821039   -0.860679    2.656295
H      -0.829363   -3.571924    0.111718
H       0.008126   -2.645946   -1.222615
H       1.657794   -2.038647    0.283354
