25

C      -1.028394    0.989086   -0.646547
C      -0.212704   -0.081324    0.075736
C      -1.103355   -1.128505    0.760335
O      -1.814330   -1.891925   -0.193803
O       0.575684   -0.785572   -0.892936
C       2.008760   -0.822679   -0.765377
C       2.438149   -1.500688    0.545414
C       2.454392   -1.666706   -1.963750
C       2.597785    0.593009   -0.870258
H      -0.373478    1.681585   -1.181262
H      -1.703071    0.516843   -1.364922
H      -1.630976    1.560695    0.067124
H       0.425111    0.388232    0.834441
H      -0.478583   -1.771860    1.400161
H      -1.844311   -0.638373    1.401827
H      -1.152673   -2.144173   -0.851057
H       2.009296   -2.504662    0.615292
H       3.528172   -1.590598    0.586937
H       2.123483   -0.929542    1.423876
H       2.122314   -1.203840   -2.896998
H       3.543837   -1.761956   -1.988697
H       2.020248   -2.668986   -1.905705
H       2.283323    1.228180   -0.036845
H       3.691468    0.552964   -0.857496
H       2.281556    1.067450   -1.803573
