17

C      -0.082124    1.597812    0.044656
C       0.001366    0.079015    0.029393
C       0.697896   -0.628140   -1.190900
N       1.722904   -1.095652   -0.265467
C       1.125375   -0.582284    0.869060
O       1.398913   -0.641907    2.035098
C      -0.107046   -1.748947   -1.844449
N      -0.941008   -1.335016   -2.839829
O      -0.010447   -2.907790   -1.493988
H       0.877949    2.050431   -0.223379
H      -0.841617    1.966523   -0.652811
H      -0.349272    1.946259    1.046632
H      -0.966022   -0.374716    0.265228
H       1.077129    0.070225   -1.947360
H       2.296109   -1.923060   -0.355871
H      -1.022934   -0.370649   -3.110150
H      -1.537795   -2.014817   -3.281691
