23

C       0.025030    1.486756    0.070298
C       0.084834   -0.047679    0.117854
C       0.755460   -0.531658    1.412621
C      -1.321427   -0.637001   -0.002883
C      -2.129588   -0.631516   -1.346885
C      -1.238726   -1.813770   -1.823552
C      -1.581249   -2.145768   -0.343349
C      -3.043741   -1.734876   -0.718127
O      -4.015285   -1.449056    0.244305
H       1.025678    1.922479    0.158535
H      -0.415583    1.842689   -0.866291
H      -0.581049    1.881495    0.895026
H       0.703190   -0.382748   -0.722377
H       0.839011   -1.622714    1.438153
H       1.762742   -0.114438    1.513848
H       0.179130   -0.220761    2.292677
H      -1.892237   -0.269637    0.862888
H      -2.445125    0.236008   -1.929230
H      -1.671580   -2.473025   -2.581612
H      -0.198818   -1.591011   -2.055414
H      -1.265953   -3.020167    0.228759
H      -3.531449   -2.391621   -1.442825
H      -3.641557   -0.870483    0.916497
