20

C      -1.103083    0.961051    1.058044
C      -0.166811    0.117994    0.180963
C       1.048249   -0.397881    0.933076
C       2.059196    0.643023    1.368479
O       0.778789   -1.407090    1.931884
C       1.527493   -1.790870    0.772311
C       0.915107   -2.803372   -0.168399
N      -0.319036   -3.235447    0.205958
O       1.511958   -3.180482   -1.157954
H      -0.622115    1.876564    1.415211
H      -1.992581    1.255872    0.493978
H      -1.429737    0.389735    1.932425
H      -0.723851   -0.725916   -0.232689
H       0.185278    0.711552   -0.671547
H       1.593139    1.398136    2.008492
H       2.873466    0.179495    1.929836
H       2.481047    1.153420    0.496491
H       2.587489   -1.979759    0.938814
H      -0.685862   -2.958519    1.101577
H      -0.753101   -3.978208   -0.316155
