21

C       0.423372   -0.617273    1.337492
C       0.016719    0.010375   -0.003245
C       0.019109    1.540751    0.085207
C       0.932526   -0.476358   -1.141097
C       0.864996   -2.012794   -1.389421
O       0.645119   -2.138907   -2.809565
C       0.447096   -0.867195   -3.252597
N       0.075890   -0.797367   -4.568248
N       0.577943    0.106908   -2.442106
H       0.383163   -1.711770    1.316402
H       1.445612   -0.326720    1.608940
H      -0.238947   -0.280828    2.141427
H      -1.003078   -0.318793   -0.250603
H       1.017798    1.913384    0.344751
H      -0.265754    1.983655   -0.870966
H      -0.674790    1.888031    0.857996
H       1.961421   -0.176461   -0.888447
H       1.782608   -2.548880   -1.136363
H       0.022694   -2.487337   -0.873066
H       0.370743   -1.573868   -5.139417
H       0.207521    0.110866   -4.984681
