17

C      -0.029524    1.547602    0.279197
C       0.117838    0.093301   -0.026804
O      -0.852190   -0.814189    0.499696
C       0.536352   -1.076966    0.799855
C       1.004025   -1.803090   -0.443059
C       0.847279   -2.874390   -1.207286
C       0.567964   -2.366556   -2.621218
O       0.261932   -0.961457   -2.484599
C       0.835264   -0.558364   -1.263202
H       0.896789    2.086816    0.057963
H      -0.828692    1.986129   -0.328395
H      -0.282652    1.696427    1.332384
H       0.823204   -1.148252    1.841081
H       0.776765   -3.918795   -0.932459
H       1.416946   -2.501948   -3.310933
H      -0.301980   -2.869888   -3.060696
H       1.774353    0.001024   -1.421027
