19

C      -0.357948    1.407554    0.020398
C       0.106165   -0.033653   -0.031928
O       1.321719   -0.193801   -0.812212
C       2.025318   -0.767998    0.303109
C       0.789519   -0.647633    1.211636
C       0.885947    0.031499    2.621433
C       0.276075   -1.242359    3.222194
O      -0.987082   -1.446410    2.576777
C       0.200756   -1.883112    1.901043
H       0.415994    2.057107    0.440861
H      -0.589342    1.761248   -0.989209
H      -1.262257    1.494150    0.631661
H      -0.693679   -0.672311   -0.431878
H       2.363760   -1.793182    0.098053
H       2.893265   -0.164680    0.600901
H       1.925203    0.196646    2.919985
H       0.309786    0.945885    2.780388
H       0.401854   -1.667621    4.210651
H       0.250931   -2.923910    1.599511
