21

O       0.658555    1.776395   -0.292475
C      -0.120062    0.636077    0.058371
C      -0.009420   -0.492892   -0.977529
C      -0.281053   -0.035427   -2.394396
C       0.834851    0.457358   -3.275155
C       0.180657   -0.871614   -3.562750
C       0.255362    0.226231    1.471604
C       0.363305   -1.152408    1.962775
O       1.535173   -0.411264    1.613819
H       1.584384    1.515193   -0.220319
H      -1.154887    1.002684    0.076934
H       0.992613   -0.936626   -0.912918
H      -0.721761   -1.283399   -0.706783
H      -1.237320    0.466462   -2.523407
H       0.638341    1.288650   -3.942713
H       1.840438    0.448201   -2.868094
H       0.746197   -1.773003   -3.348291
H      -0.467943   -0.953052   -4.428035
H       0.083753    1.014129    2.206305
H       0.236913   -1.347668    3.026860
H       0.131412   -1.990085    1.309381
