20

O      -0.034630    1.374014   -0.194654
C       0.055902    0.020090    0.210250
C      -1.323023   -0.621222    0.151509
N      -1.927103   -0.533756   -1.248135
C      -1.231993   -1.849707   -1.536940
C      -1.487588   -2.150566   -0.028966
O      -0.733353   -3.020969    0.750267
C      -3.027940   -2.268506   -0.026765
C      -3.307221   -1.039123   -0.953411
H      -0.593445    1.366027   -0.983688
H       0.793031   -0.531047   -0.391052
H       0.417343    0.010817    1.243627
H      -1.959195   -0.148504    0.908150
H      -1.723441   -2.467395   -2.294537
H      -0.186362   -1.698568   -1.798932
H      -1.081016   -3.913313    0.649935
H      -3.373245   -3.218194   -0.449505
H      -3.446667   -2.163241    0.977729
H      -3.886574   -0.254298   -0.462299
H      -3.807130   -1.305492   -1.887674
