16

O       0.055433   -0.064983   -0.136798
C       0.015221    1.132063   -0.077693
C       1.226628    2.045103    0.063945
O       2.365024    1.241125    0.357591
C       3.578513    1.601752   -0.132062
N       3.860209    2.434021   -1.040387
C       2.777987    3.105750   -1.688229
C       1.787017    2.290068   -2.491715
C       1.369352    2.908583   -1.181225
H      -0.940726    1.700237   -0.154523
H       1.047000    2.709533    0.923643
H       4.357211    1.034623    0.371766
H       3.050405    4.079999   -2.078890
H       1.388772    2.717584   -3.404975
H       1.949036    1.217591   -2.523121
H       0.688914    3.753482   -1.210242
