21

C      -0.032440    1.554456    0.126886
C       1.515418    1.439494    0.039890
C       1.337810    0.105536    0.832850
C      -0.008478    0.002101    0.047621
C       0.347213   -0.455846   -1.410901
C      -0.142420    0.517136   -2.512396
C       0.995249    1.590313   -2.518137
C       1.943958    1.050307   -1.419011
O       1.769116   -0.364626   -1.567727
H      -0.345929    1.892154    1.118779
H      -0.579394    2.130318   -0.619723
H       2.132286    2.242636    0.449442
H       2.079360   -0.681316    0.707541
H       1.159077    0.300722    1.892639
H      -0.844038   -0.564737    0.464548
H       0.060752   -1.495906   -1.579292
H      -0.185459   -0.005221   -3.470848
H      -1.133137    0.932738   -2.314598
H       1.514069    1.598018   -3.479441
H       0.639156    2.604555   -2.323502
H       2.998030    1.274738   -1.594228
