13

O       0.196815    1.348640   -0.149107
C       0.088530   -0.030236   -0.073118
C       0.049546   -0.646334    1.382996
O      -1.339919   -0.163661    1.450859
C      -1.378881   -0.607751    0.047481
C      -1.100077   -2.098866    0.157796
C      -0.122059   -2.125284    1.072216
H      -0.414694    1.697702    0.515064
H       0.762756   -0.475492   -0.807111
H       0.688534   -0.305739    2.196357
H      -2.222921   -0.227092   -0.525722
H      -1.560595   -2.893216   -0.410281
H       0.452349   -2.947592    1.471773
