15

O      -0.060567    1.472700    0.011021
C      -0.006668    0.071616    0.003778
C      -1.426255   -0.486512    0.012643
O      -2.412959    0.223181    0.023483
C      -1.552769   -1.943897    0.007255
C      -0.685129   -3.020879   -0.004210
N      -1.372281   -4.200452   -0.003973
C      -2.649446   -3.853931    0.007447
N      -2.809466   -2.513260    0.014446
H       0.841935    1.804224    0.004769
H       0.504880   -0.331408   -0.887098
H       0.519411   -0.339998    0.882172
H       0.394775   -3.003382   -0.012505
H      -3.483619   -4.539565    0.010950
H      -3.657559   -1.967260    0.023401
