13

C      -0.016134    1.404319    0.040677
C      -0.012408   -0.071988   -0.049290
N      -0.198429   -0.799404   -1.107480
N      -0.087663   -2.069213   -0.606157
N      -0.159233   -3.330161   -1.084156
C       0.059060   -4.011490    0.043979
N       0.262889   -3.284656    1.197152
C       0.156118   -2.075326    0.709063
O       0.213773   -0.788383    1.116492
H       0.947170    1.771105    0.408319
H      -0.206716    1.819055   -0.949272
H      -0.791495    1.746842    0.732879
H       0.073511   -5.090685    0.041890
