19

C      -0.101058    1.537672    0.134536
C       0.110782    0.059149    0.034053
N      -0.782752   -0.916636    0.707249
C       0.678998   -0.941531    0.981753
C       1.302964   -1.755550   -0.152738
C       0.712288   -0.707794   -1.163719
C      -0.285972   -1.203097   -2.218906
C       0.332789   -2.089927   -3.200851
N       0.844126   -2.787571   -3.967737
H       0.786056    2.086367   -0.199481
H      -0.947016    1.864518   -0.482133
H      -0.309370    1.834718    1.168225
H      -1.227752   -0.426339    1.483106
H       1.049652   -0.806727    1.990955
H       2.394203   -1.757989   -0.147558
H       0.935528   -2.780440   -0.247305
H       1.511332   -0.133154   -1.639175
H      -1.098618   -1.734215   -1.712868
H      -0.732592   -0.354686   -2.751515
