20

C      -0.919482    1.363440    0.410629
O      -1.172508   -0.015643    0.572331
C      -0.695398   -0.800404   -0.512606
C      -0.974628   -2.274045   -0.286389
C      -0.396319   -3.147101   -1.382589
C      -0.982409   -2.801838    1.142192
C      -2.273795   -2.692271    0.363913
O      -3.281456   -1.792668    0.703800
H      -1.310532    1.873338    1.293726
H       0.159354    1.561989    0.329518
H      -1.415101    1.764578   -0.485887
H      -1.175250   -0.467275   -1.449114
H       0.389901   -0.637801   -0.629472
H       0.697945   -3.073893   -1.418520
H      -0.649622   -4.198342   -1.217741
H      -0.783859   -2.863910   -2.368874
H      -0.557112   -3.781926    1.335735
H      -0.830815   -2.074496    1.932169
H      -2.716032   -3.618856    0.008491
H      -2.850156   -0.944953    0.881181
