21

C      -0.033132    1.557942    0.015282
C       1.516778    1.402152    0.039299
C       1.257277    0.145645    0.922993
C      -0.022865    0.000396    0.047090
C       0.410708   -0.506887   -1.358554
C       0.815546    0.612456   -2.382233
C       1.737490   -0.404082   -3.084764
C       1.959640   -0.639703   -1.577444
C       1.973496    0.915943   -1.366462
H      -0.412963    1.980330    0.949601
H      -0.500690    2.066796   -0.829627
H       2.134326    2.215143    0.426312
H       1.992111   -0.661468    0.923883
H       1.014774    0.417732    1.953914
H      -0.887901   -0.536419    0.441605
H      -0.204141   -1.321516   -1.751951
H       0.155337    1.334926   -2.864964
H       1.246135   -1.209374   -3.639192
H       2.582129    0.006974   -3.645954
H       2.629339   -1.372762   -1.124679
H       2.839873    1.449886   -1.767356
