18

N      -0.204537    1.029600   -0.087399
C      -0.410200   -0.193721    0.132679
O      -0.419168   -1.063372   -0.905342
C      -0.681579   -2.411048   -0.602825
C      -2.125290   -2.680448   -0.168755
O      -2.883704   -1.775603    0.101434
C      -2.506127   -4.114964   -0.078937
C      -3.514318   -4.505390    0.994143
C      -3.946437   -4.472612   -0.428881
H      -0.213018    1.545444    0.789829
H      -0.571112   -0.669644    1.107405
H      -0.462628   -2.980106   -1.511841
H      -0.011150   -2.796322    0.183252
H      -1.737355   -4.837307   -0.332040
H      -3.368529   -5.463663    1.478827
H      -3.846968   -3.698026    1.636285
H      -4.568026   -3.643034   -0.745191
H      -4.105123   -5.407079   -0.954077
