16

C       0.114869    1.387744    0.100098
N       0.095499   -0.061689   -0.011330
C       0.496827   -0.641962   -1.045495
O       0.997803   -0.043977   -2.187165
C       1.645716   -0.988694   -2.982350
O       2.117924   -0.689121   -4.031047
C       1.625145   -2.327139   -2.262434
C       0.535587   -2.151574   -1.202251
O       0.804232   -2.805787    0.006657
H       0.583830    1.891139   -0.751587
H      -0.914073    1.748566    0.203112
H       0.643680    1.663224    1.018013
H       1.471486   -3.142031   -2.969178
H       2.593487   -2.472626   -1.770530
H      -0.434631   -2.473122   -1.617703
H       0.463484   -2.223336    0.701128
