23

C      -0.109479    1.493239    0.173643
C       0.074185   -0.004000   -0.010007
O       0.681021   -0.530497    1.150549
C       0.891112   -1.926333    1.092057
C       1.507863   -2.368667    2.405746
C       0.647588   -2.305524    3.713936
C       0.941226   -3.792391    3.956482
C       0.430404   -4.611428    2.807913
C       1.731400   -3.869084    2.645982
H       0.856266    1.981061    0.333851
H      -0.578534    1.932676   -0.711851
H      -0.743570    1.697964    1.041020
H      -0.898964   -0.493966   -0.187143
H       0.700159   -0.210878   -0.895379
H      -0.063986   -2.446856    0.909477
H       1.561201   -2.182530    0.251938
H       2.438230   -1.811952    2.550532
H       1.079249   -1.639126    4.462747
H      -0.408288   -2.044988    3.585527
H       1.178912   -4.238169    4.914601
H       0.535337   -5.686263    2.918023
H      -0.466824   -4.310955    2.272046
H       2.654498   -4.397820    2.438555
