17

C       0.786057    0.956531    0.205925
C      -0.331892   -0.051456    0.082137
O      -1.113311   -0.287737    0.973150
C      -0.423243   -0.835561   -1.237551
C       0.012561   -2.285499   -1.007034
C       0.104889   -3.258057   -2.199672
O       1.539776   -3.433219   -1.957264
C       1.523337   -2.533472   -0.923879
O       2.446478   -2.134944   -0.287165
H       1.742676    0.427046    0.117792
H       0.743075    1.685424   -0.611202
H       0.730298    1.466233    1.168199
H      -1.471773   -0.824084   -1.552524
H       0.181672   -0.373735   -2.024318
H      -0.520987   -2.696402   -0.146217
H      -0.424559   -4.207119   -2.100555
H      -0.064572   -2.821214   -3.186458
