21

O      -0.012329    0.001146    0.028324
C      -0.028593    1.204277   -0.013520
C      -1.282635    2.092629   -0.083115
C      -0.740548    3.531137    0.052342
C       0.637570    3.414666   -0.642371
C       1.192889    2.134181    0.004600
C       1.561484    2.431655    1.480721
C       0.336292    2.906290    2.288518
C      -0.521973    3.936121    1.525443
H      -1.751084    1.937585   -1.063031
H      -2.015607    1.794555    0.672287
H      -1.391156    4.260589   -0.437521
H       0.521389    3.292428   -1.725360
H       1.274004    4.288212   -0.470226
H       2.037573    1.679006   -0.516578
H       1.989578    1.537684    1.945473
H       2.341856    3.202874    1.484324
H      -0.283095    2.034366    2.532525
H       0.657130    3.321082    3.249724
H      -0.031150    4.917552    1.544762
H      -1.485671    4.059657    2.033250
