18

C       0.157532    1.614671   -0.073344
C      -0.045747    0.114596    0.118001
O       0.435444   -0.571651   -1.050246
C       1.261741   -1.660473   -0.672216
C       1.465860   -1.503391    0.816624
C       0.718158   -0.502028    1.270031
C       0.570654   -0.016821    2.675197
C       0.620412   -2.955734   -1.007014
N       0.134546   -3.973278   -1.259313
H       1.222752    1.853059   -0.146085
H      -0.335591    1.941266   -0.992521
H      -0.274923    2.173007    0.762840
H      -1.124030   -0.088046    0.232124
H       2.200917   -1.609579   -1.241841
H       2.108158   -2.158611    1.389716
H       1.165242   -0.614729    3.369529
H       0.882713    1.029754    2.769905
H      -0.477626   -0.063204    2.995136
