23

C       0.120481    0.956447   -0.651630
O       0.120834   -0.388257   -0.238436
C       0.771278   -0.586356    0.997907
C       0.826418   -2.074192    1.290920
O       1.777523   -2.686673    0.434524
C       1.364338   -3.876340   -0.186311
C       1.353747   -5.087706    0.719290
C       0.357552   -3.735823   -1.302057
C       1.821342   -3.996143   -1.608164
H       1.143201    1.343282   -0.784077
H      -0.402737    1.005456   -1.609705
H      -0.400009    1.606382    0.070146
H       1.796445   -0.182673    0.968201
H       0.229985   -0.068339    1.808793
H       1.111029   -2.224482    2.342787
H      -0.172202   -2.502242    1.140176
H       0.629245   -4.971265    1.533544
H       1.084347   -5.989522    0.161885
H       2.342605   -5.240155    1.164778
H      -0.356340   -4.536403   -1.465522
H      -0.014152   -2.734770   -1.487869
H       2.399376   -3.167879   -2.000517
H       2.111516   -4.974401   -1.976141
