15

N       0.072523   -1.113288   -0.011727
C       0.032568    0.041993   -0.001173
C      -0.037358    1.479827    0.005635
C      -0.711882    2.424751    1.052371
C       0.014579    3.334877    0.016741
N       1.201450    2.372243   -0.012492
C      -0.580763    2.442020   -1.080762
C      -0.685536    2.425373   -2.522656
O      -1.848606    2.471467   -1.636516
H      -1.803806    2.443642    1.084819
H      -0.263967    2.395224    2.048749
H       0.150041    4.413926    0.027990
H       1.616279    2.347714    0.924692
H      -0.512771    3.334391   -3.093727
H      -0.566026    1.490887   -3.065558
