20

C      -0.148525    1.441572    0.002915
O      -0.106275    0.034333   -0.009440
C       0.665272   -0.483667   -1.062748
C       0.691081   -2.007154   -0.993888
C      -0.700783   -2.613731   -0.866063
C       1.539149   -2.610420   -2.154849
N       2.656715   -3.314904   -1.508604
C       2.505144   -3.120145   -0.265395
O       1.462302   -2.394482    0.191369
H       0.855280    1.878443    0.121979
H      -0.590932    1.845161   -0.921880
H      -0.767543    1.741705    0.851450
H       0.247293   -0.182757   -2.040500
H       1.700212   -0.105451   -1.017736
H      -1.302731   -2.360617   -1.745209
H      -0.631255   -3.702989   -0.798849
H      -1.205943   -2.229398    0.021142
H       0.956532   -3.307438   -2.766648
H       1.929527   -1.837236   -2.828260
H       3.162536   -3.497327    0.510896
