19

C      -0.189471    1.575011    0.016098
C       0.038808    0.053334    0.039392
C       0.759022   -0.455497   -1.172610
C       2.023326   -0.905775   -1.300244
N       3.001076   -1.099130   -0.351318
C       2.260518   -1.314664   -2.730505
O       1.038115   -1.037045   -3.399568
C       0.125797   -0.536480   -2.487005
N      -1.063980   -0.209824   -2.782265
H       0.760962    2.118461   -0.014069
H      -0.769608    1.850388   -0.867588
H      -0.738622    1.899103    0.905864
H       0.586178   -0.229810    0.947679
H      -0.935060   -0.446321    0.097770
H       2.876907   -0.603125    0.518784
H       3.954990   -1.067601   -0.679224
H       3.074847   -0.745354   -3.202094
H       2.499395   -2.383223   -2.819997
H      -1.246283   -0.371483   -3.772885
