12

O       0.042334   -0.030897   -0.072192
C       0.031551    1.169619   -0.004950
N      -1.102919    1.972515    0.127900
C      -0.874421    3.345483    0.018019
O      -1.719255    4.199945   -0.026972
C       0.628982    3.499128   -0.058821
N       1.272288    2.950485    1.159757
C       1.199149    2.129698   -0.073416
H      -2.027903    1.586089    0.249599
H       1.051380    4.349845   -0.577067
H       2.211478    3.340763    1.228596
H       2.096494    1.839652   -0.603853
