13

C       0.150451    1.456801    0.064068
C      -0.056130   -0.008708   -0.030618
C      -1.138530   -0.813357   -0.250699
N      -0.749843   -2.131521   -0.236373
C       0.531192   -2.091670   -0.012624
O       1.020947   -0.821846    0.123403
C       1.510466   -3.179585    0.113450
O       1.242769   -4.351505    0.019842
H       0.855282    1.808878   -0.696830
H      -0.800136    1.974106   -0.080531
H       0.552690    1.739250    1.042923
H      -2.163850   -0.521228   -0.416722
H       2.540265   -2.812466    0.306850
