18

C       0.501092    1.320579    0.013982
C      -0.113555   -0.080318   -0.019708
O      -1.538654    0.008431   -0.025456
C       0.417978   -0.912251   -1.232894
C       1.511457   -1.792033   -0.669706
O       2.479422   -1.083550    0.121274
C       1.425870   -1.792169    0.795851
C       0.276439   -0.913865    1.232857
H       1.590051    1.256960    0.065815
H       0.235585    1.880946   -0.892016
H       0.131851    1.875758    0.881930
H      -1.790211    0.666549   -0.682074
H      -0.395180   -1.541686   -1.610913
H       0.766086   -0.277182   -2.054648
H       1.905707   -2.628699   -1.241157
H       1.751995   -2.628616    1.408637
H       0.524952   -0.277868    2.087694
H      -0.575619   -1.540345    1.517696
