18

O      -0.023443   -0.091818   -0.250895
C       0.009803    1.104013   -0.118826
C       1.283654    1.924485   -0.183184
C       1.224098    3.076140   -1.220693
C       0.147424    4.022468   -0.894422
N      -0.691232    4.769164   -0.620407
C       2.557898    3.804901   -1.325040
C       3.638824    3.251215   -2.217541
C       2.930397    4.529915   -2.590080
H      -0.917020    1.690636    0.064981
H       1.461764    2.357078    0.810360
H       2.116186    1.260758   -0.426768
H       0.989148    2.645935   -2.203250
H       2.877701    4.258664   -0.391459
H       4.664304    3.305881   -1.870931
H       3.414495    2.361424   -2.797378
H       2.230303    4.498225   -3.418280
H       3.466635    5.467253   -2.499896
