23

C      -0.140961    1.553899    0.063371
C       0.041541    0.053458    0.072726
C       1.358210   -0.645128   -0.194078
C       2.665022    0.131913   -0.040543
C       2.701867    0.519300    1.429026
C       3.800345    1.364924    1.992296
C       1.639038    0.025530    2.074662
C       0.714326   -0.743567    1.187161
C       0.058116   -1.995643    1.723261
H       0.675283    2.069451    0.574374
H      -0.189601    1.933690   -0.963865
H      -1.074316    1.836071    0.563463
H      -0.804897   -0.476990   -0.361585
H       1.345246   -1.496277   -0.866732
H       3.534013   -0.484593   -0.309605
H       2.711856    1.017653   -0.690199
H       3.836608    2.351040    1.511236
H       3.678198    1.520113    3.067878
H       4.782353    0.903632    1.823592
H       1.440328    0.167520    3.132918
H      -0.639259   -1.763802    2.537607
H      -0.510322   -2.509525    0.941407
H       0.801459   -2.699641    2.115167
