20

C       0.111508    1.620653    0.093822
C      -0.044926    0.098080    0.141087
N       0.694571   -0.523288    1.227496
C       2.007747   -0.920266    1.172923
C       2.383320   -1.349360    2.424795
C       1.252667   -1.213039    3.280930
C       1.156485   -1.575701    4.733921
O       0.241888   -0.753940    5.451457
C       0.232182   -0.695437    2.509142
H       1.160849    1.899608   -0.038135
H      -0.463300    2.035780   -0.740064
H      -0.247877    2.077083    1.020542
H      -1.099553   -0.172128    0.254873
H       0.298814   -0.348448   -0.797437
H       2.560986   -0.857565    0.248672
H       3.354198   -1.735462    2.698240
H       0.780141   -2.597656    4.867279
H       2.160866   -1.550881    5.187189
H       0.479631    0.158761    5.255386
H      -0.783451   -0.445379    2.771658
