20

C       0.494353    1.394246   -0.059273
O       0.809905    0.024572   -0.121536
C       0.063333   -0.665482   -1.103690
C       0.422592   -2.116348   -1.044413
C       0.486134   -2.982175    0.220910
C       1.686172   -3.756979   -0.433742
O       1.505057   -5.124503   -0.740622
C       1.571092   -2.863782   -1.668483
N       0.226775   -2.933967   -2.232466
H       0.706673    1.906979   -1.010855
H      -0.566894    1.559322    0.187061
H       1.112042    1.837771    0.725522
H      -1.018715   -0.533380   -0.921960
H       0.272267   -0.278640   -2.113479
H       0.783169   -2.422402    1.109508
H      -0.409540   -3.575035    0.436976
H       2.621852   -3.587311    0.114338
H       1.463156   -5.615859    0.086001
H       2.381927   -2.521683   -2.300913
H      -0.216076   -3.829100   -2.032065
