19

C      -0.568163    1.434743   -0.037942
C       0.106199    0.074668   -0.047167
O       1.107635    0.049021   -1.058272
C       1.913440   -1.100213   -0.806559
C       2.045723   -1.174462    0.709534
O       2.973008   -0.202009    1.234103
C       1.911564    0.584328    1.811446
C       0.833347   -0.370607    1.240535
O       0.014078   -1.040258    2.162223
H       0.154008    2.234478    0.145602
H      -1.047807    1.624472   -1.001606
H      -1.342987    1.475969    0.735867
H      -0.648229   -0.708616   -0.244313
H       1.425996   -2.012172   -1.188609
H       2.872923   -0.964360   -1.310613
H       2.213663   -2.177437    1.112141
H       1.944668    0.581081    2.907726
H       1.920623    1.615123    1.440358
H      -0.695066   -0.445637    2.430832
