19

C       0.003471    1.445585   -0.039835
C       0.028012   -0.056954    0.024042
O       0.586157   -0.599153   -1.172266
C       0.029567   -1.914681   -1.284657
C      -0.820439   -2.004391   -0.003430
C       0.113196   -2.138009    1.213925
C       0.747653   -0.710526    1.238929
O       2.145586   -0.662583    1.045359
O      -1.264438   -0.638865    0.106584
H       1.029454    1.820124   -0.064524
H      -0.518564    1.772678   -0.941208
H      -0.502458    1.853027    0.838968
H      -0.578757   -1.981307   -2.194322
H       0.826000   -2.665837   -1.324556
H      -1.674309   -2.679035   -0.045386
H      -0.459325   -2.346441    2.120690
H       0.878565   -2.908607    1.091570
H       0.461043   -0.173589    2.152977
H       2.570560   -0.915862    1.869931
