17

C      -0.342962    1.475421   -0.023530
C       0.081724    0.017241    0.019952
C       1.007019   -0.436149   -1.145998
N       2.273665   -0.808538   -0.500820
C       2.093702   -0.646241    0.749549
O       0.905801   -0.209220    1.200903
C       3.147639   -0.915142    1.803370
N       4.304947   -1.363034    1.257521
O       2.944748   -0.740065    2.985873
H       0.530480    2.128260   -0.117730
H      -0.997135    1.647406   -0.884718
H      -0.886292    1.750470    0.884079
H      -0.792723   -0.632109    0.125417
H       0.604754   -1.292457   -1.697497
H       1.178384    0.367122   -1.872139
H       4.375621   -1.471269    0.258923
H       5.081182   -1.571322    1.861524
