15

N      -0.562592    1.237939    0.359925
C      -0.205560   -0.095855    0.093133
C      -1.042179   -1.109789   -0.329519
N      -0.298554   -2.247761   -0.396543
N       0.980011   -2.043944   -0.045578
C       1.039798   -0.747340    0.259128
O      -2.352520   -1.098535   -0.707542
C      -3.273637   -0.896830    0.288493
N      -4.486953   -0.795855   -0.020037
H       0.248106    1.841963    0.405277
H      -1.201500    1.608436   -0.334551
H      -0.601293   -3.150468   -0.721708
H       1.974380   -0.314854    0.586987
H      -2.813112   -0.846359    1.280926
H      -5.050341   -0.658148    0.816525
