18

O       0.515028    0.921055    0.465184
C       0.184039   -0.346465   -0.030799
C      -1.346427   -0.663144   -0.152559
N      -1.081696   -1.012214   -1.573904
C       0.202479   -0.468531   -1.551517
N       1.067388   -0.069879   -2.381142
C      -1.923232   -1.770337    0.691138
C      -2.905992   -2.729014    0.131990
N      -1.535602   -3.166577    0.454784
H       1.144827    1.303248   -0.158874
H       0.731061   -1.144459    0.488177
H      -1.920040    0.263323   -0.035764
H      -1.738510   -0.889400   -2.333931
H       0.760856   -0.163795   -3.350624
H      -1.999749   -1.507360    1.744822
H      -3.686392   -3.142737    0.763875
H      -3.177169   -2.627874   -0.916241
H      -1.002141   -3.208909   -0.412995
