16

O      -0.247328    1.365133   -0.144025
C      -0.051289   -0.016229   -0.055436
C      -0.392466   -0.719157    1.256502
C      -1.300072   -0.810862    0.069134
N      -2.637423   -0.247039   -0.043045
C      -3.056299   -1.168400   -0.976262
O      -4.006172   -1.245277   -1.708973
C      -1.759171   -2.006058   -0.786832
O      -1.028409   -2.253253   -1.957566
H       0.487480    1.802986    0.298279
H       0.751093   -0.423848   -0.668689
H       0.180124   -1.594863    1.545630
H      -0.710760   -0.082653    2.076336
H      -2.916575    0.717392    0.074926
H      -1.906848   -2.921830   -0.199389
H      -1.659133   -2.295048   -2.686070
