16

O       0.107070    1.434750   -0.171677
C       0.036086    0.023007   -0.028976
C       0.539099   -0.471472    1.380482
N      -0.354923   -1.585493    1.777266
C      -1.532924   -1.380594    1.059624
N      -2.744202   -1.899384    1.149686
N      -3.379898   -1.313415    0.084702
C      -2.593112   -0.465258   -0.631878
C      -1.368451   -0.481084   -0.008696
H       1.024891    1.668784   -0.343593
H       0.623660   -0.456939   -0.827272
H       1.581567   -0.802913    1.362816
H       0.452791    0.388521    2.059247
H      -0.460342   -1.720840    2.774001
H      -4.354901   -1.509313   -0.056854
H      -2.976272    0.070183   -1.486125
