21

C       0.059877    1.647354    0.061008
C       0.041347    0.109487    0.061304
C       0.745630   -0.432002    1.318078
C      -1.425655   -0.402845   -0.023051
C      -2.296198    0.010956    1.142458
O      -3.206421    0.797135    1.066262
C       0.763777   -0.427526   -1.211991
C       2.162435   -0.033012   -1.327136
C       3.316027    0.294515   -1.416318
H       1.088189    2.018571    0.063413
H      -0.443471    2.048274   -0.825287
H      -0.451230    2.050021    0.940633
H       0.307710   -0.023698    2.233576
H       0.682919   -1.524873    1.371545
H       1.804051   -0.157835    1.305481
H      -1.899891   -0.031809   -0.937334
H      -1.414441   -1.501582   -0.057233
H      -2.046808   -0.471247    2.114682
H       0.699052   -1.523672   -1.221100
H       0.219067   -0.081206   -2.099888
H       4.334885    0.580119   -1.505108
