17

C      -0.095304    1.459529    0.038953
N       0.049603    0.014060   -0.069910
C       0.554708   -0.659599   -1.240202
C       1.338198    0.134986   -2.287545
C       2.558002    0.735142   -1.554259
C       2.601328    0.077229   -0.166966
O       3.533487    0.119255    0.597369
C       1.327943   -0.692678    0.054094
H       0.589243    2.065121   -0.569513
H      -1.117912    1.717338   -0.254480
H       0.035954    1.744373    1.086584
H      -0.026802   -1.516376   -1.571971
H       1.659628   -0.548112   -3.079112
H       0.712301    0.896945   -2.763474
H       3.502163    0.522520   -2.063140
H       2.511186    1.823578   -1.438793
H       1.350888   -1.522373    0.754258
