19

O       0.250885    1.103153    0.651267
C       0.020422    0.060333   -0.288311
C      -1.341421   -0.469885   -0.252256
C      -2.480019   -0.862664   -0.225356
C      -3.841669   -1.379848   -0.172141
C      -3.907360   -2.859943    0.212923
C      -5.288237   -3.548014    0.141110
C      -4.594211   -4.504723   -0.848631
O      -3.379448   -3.726243   -0.815051
H      -0.446817    1.755428    0.529955
H       0.257406    0.387704   -1.313462
H       0.737965   -0.728743   -0.037155
H      -4.426507   -0.810517    0.564075
H      -4.338915   -1.249430   -1.141780
H      -3.377409   -3.013571    1.162270
H      -5.656703   -3.988365    1.068314
H      -6.072566   -2.928150   -0.299565
H      -4.435599   -5.523543   -0.472927
H      -5.017206   -4.562117   -1.858067
