20

C      -0.328557    1.582324    0.042065
C      -0.045778    0.085678    0.023335
C       0.688186   -0.565616   -1.196033
C       1.479056    0.289753   -2.215706
C       2.920584    0.374763   -1.650455
C       3.068895   -0.883963   -0.761444
N       1.715574   -1.091480   -0.252185
C       1.199418   -0.357548    0.823773
O       1.657813   -0.113866    1.906673
H       0.559218    2.169908   -0.211514
H      -1.123884    1.844259   -0.663039
H      -0.646120    1.887069    1.043309
H      -0.946111   -0.470682    0.301950
H       0.115018   -1.353495   -1.691118
H       1.479513   -0.218084   -3.184958
H       1.038118    1.276780   -2.374360
H       3.675671    0.431698   -2.438565
H       3.031399    1.266019   -1.023597
H       3.391058   -1.755983   -1.341181
H       3.758657   -0.749092    0.074272
