17

C      -0.574366    1.167884   -0.693748
C       0.032110   -0.064147   -0.044191
C       1.199347   -0.728065   -0.702620
N       1.394455    0.027208    0.540035
C      -0.895937   -0.871918    0.712147
C      -1.698742   -1.531806    1.317610
C      -2.653214   -2.341061    2.070547
C      -3.382298   -3.303819    1.232877
N      -3.962563   -4.062743    0.584547
H       0.178576    1.700955   -1.283193
H      -1.397599    0.891953   -1.359453
H      -0.969698    1.851313    0.064387
H       1.327167   -1.801784   -0.609239
H       1.543491   -0.303718   -1.642600
H       1.776776    0.947388    0.331612
H      -2.138582   -2.898714    2.863752
H      -3.389562   -1.702425    2.575523
