19

O       0.587471    0.129221    0.902890
C       0.733702    0.814616   -0.079561
C       1.326203    2.193905   -0.101875
C       0.550271    3.341264   -0.819979
C       1.091865    4.306841    0.269990
C       1.419680    3.090574    1.164673
C       0.602274    2.793617    2.443331
C       1.982628    2.651559    3.108710
O       2.648803    3.081019    1.897355
H       0.418047    0.440179   -1.082496
H       2.332760    2.110182   -0.534330
H       0.814058    3.551575   -1.857216
H      -0.532911    3.205927   -0.752566
H       2.017499    4.795762   -0.046970
H       0.409703    5.057839    0.675679
H       0.024883    3.654172    2.788334
H      -0.018327    1.900828    2.432772
H       2.199750    3.317497    3.950506
H       2.257417    1.624495    3.374108
