19

O       0.028793    1.326560   -0.492161
C       0.041777    0.147200    0.295100
C      -1.327568   -0.476983    0.361062
O      -1.761947   -1.098530   -0.874458
C      -1.559664   -1.919150    0.259438
C      -0.585578   -3.095560    0.388940
C      -1.533287   -3.663274    1.487793
C      -2.654811   -2.705338    0.974015
O      -3.410309   -1.961836    1.895576
H      -0.328022    1.077055   -1.352369
H       0.766119   -0.585263   -0.090697
H       0.365615    0.448589    1.297490
H      -2.099778    0.126232    0.836786
H      -0.576797   -3.708282   -0.516851
H       0.444062   -2.876653    0.676031
H      -1.739411   -4.734719    1.471281
H      -1.218320   -3.365595    2.490603
H      -3.294307   -3.210173    0.235837
H      -4.186763   -2.471658    2.144595
