19

C       1.139201    1.741328   -0.518532
C       0.289238    0.606716    0.073781
C       0.079516   -0.544747   -0.925691
O      -0.577980   -0.143903   -2.113706
C       0.952326    0.077907    1.325317
O       0.918535    0.888514    2.487802
C       0.223078   -0.351882    2.554634
C      -1.270925   -0.314669    2.640358
O      -1.957146    0.637137    2.369372
H       2.129360    1.384044   -0.828709
H       0.644037    2.181803   -1.389108
H       1.282038    2.536718    0.217397
H      -0.689692    1.010338    0.346437
H       1.047670   -1.025206   -1.148545
H      -0.563337   -1.309971   -0.476906
H       0.026193    0.407591   -2.619386
H       1.914851   -0.416889    1.164797
H       0.690881   -1.114725    3.179642
H      -1.716880   -1.277677    2.977547
