21

C      -0.058526    1.398923   -0.018149
O      -0.067387    0.007611    0.203446
C      -1.321802   -0.625409    0.004431
C      -1.662449   -0.793592   -1.477934
C      -1.244531   -1.969558    0.734699
O      -2.503734   -2.581924    0.562428
C       0.001348   -2.850243    0.450933
O       0.417356   -2.780284    1.828408
C      -0.697208   -1.939035    2.183742
H       0.931268    1.761472    0.269718
H      -0.232298    1.660357   -1.071489
H      -0.816311    1.911459    0.594622
H      -2.114543   -0.034890    0.494506
H      -0.875422   -1.357873   -1.988695
H      -2.605779   -1.332117   -1.584421
H      -1.762021    0.175907   -1.973371
H      -2.490257   -3.434156    1.009910
H      -0.235042   -3.875636    0.134071
H       0.746096   -2.417634   -0.225047
H      -0.374175   -0.959610    2.549934
H      -1.362223   -2.411291    2.920430
