19

C      -0.494983    1.212780    0.206178
C       0.211969   -0.098928   -0.065771
O       0.768812   -0.723540    0.832549
C       0.151714   -0.664576   -1.413304
C       1.231173   -1.654254   -1.867226
C      -0.092552   -2.219707   -1.546774
O      -0.331321   -3.085845   -0.515215
C      -1.122296   -1.965292   -2.642868
C      -0.832571   -0.425266   -2.565003
H      -0.163289    1.987530   -0.493357
H      -1.575750    1.096163    0.064249
H      -0.302362    1.525809    1.232902
H       1.583358   -1.570923   -2.893551
H       1.999483   -1.829832   -1.122505
H       0.165110   -2.749390    0.249972
H      -0.936663   -2.464380   -3.598824
H      -2.130085   -2.208114   -2.301945
H      -1.715904    0.149203   -2.279773
H      -0.400165    0.026220   -3.463975
