23

C       0.183596    1.553958    0.029963
C      -0.029067    0.036861   -0.014512
C      -1.498303   -0.455418    0.029588
C      -2.223430    0.061216    1.284161
C      -2.257273   -0.020627   -1.235653
C      -1.439468   -2.019868    0.064824
O      -0.706469   -2.514220    1.186073
C      -2.762024   -2.650690    0.003101
C      -3.842838   -3.178707    0.006155
H       1.252051    1.783683   -0.032286
H      -0.307601    2.067802   -0.802422
H      -0.188301    1.993451    0.960494
H       0.433041   -0.356803   -0.930368
H       0.507247   -0.427722    0.818644
H      -2.336683    1.148125    1.253667
H      -3.225455   -0.372639    1.361666
H      -1.668405   -0.186270    2.195464
H      -1.771918   -0.404476   -2.140559
H      -3.287345   -0.386877   -1.225761
H      -2.292221    1.069554   -1.314226
H      -0.860582   -2.342163   -0.810491
H      -1.305878   -2.531125    1.939416
H      -4.793170   -3.653028   -0.008230
