20

C       0.091578    1.378365    0.071641
O      -0.197206    0.015947   -0.144648
C       0.565037   -0.572293   -1.173446
C       2.056991   -0.846724   -0.823825
C       2.286349   -2.229106   -1.411671
C       1.473313   -3.380649   -0.943336
C       0.179457   -2.934795   -0.276471
C       0.027526   -1.967904   -1.477927
N       1.136701   -2.679485   -2.245635
H       1.127608    1.535699    0.406830
H      -0.069839    1.976055   -0.839276
H      -0.585991    1.734064    0.851623
H       0.507164    0.047606   -2.083106
H       2.733383   -0.111771   -1.267739
H       2.200033   -0.821046    0.261699
H       3.252780   -2.463702   -1.846802
H       1.872503   -4.390965   -0.937873
H      -0.573983   -3.724423   -0.296426
H       0.221299   -2.501305    0.726259
H      -0.927013   -1.973306   -2.002281
