23

C      -0.232201    1.554528    0.017412
C       0.016279    0.044064    0.001786
C       0.588837   -0.485278    1.324414
C       0.781758   -1.997828    1.316281
C       1.967648   -2.691470    0.556262
C       2.900323   -2.236706    1.714084
C       1.609294   -2.742630    2.418606
C       1.695896   -3.956789    1.435523
O       0.619090   -4.816786    1.204572
H       0.695769    2.106495    0.204061
H      -0.639963    1.902950   -0.936632
H      -0.943011    1.830762    0.804354
H      -0.922854   -0.479441   -0.222420
H       0.704491   -0.206871   -0.815624
H       1.523596    0.040993    1.544749
H      -0.100348   -0.228177    2.141298
H      -0.199869   -2.448420    1.112952
H       2.179827   -2.662962   -0.513999
H       3.805034   -2.831048    1.871330
H       3.120419   -1.173297    1.786750
H       1.407386   -2.768927    3.491153
H       2.563086   -4.605049    1.584271
H      -0.180596   -4.300380    1.063693
