22

C      -0.236758    1.536697    0.179578
C      -0.018818    0.045074    0.047035
C       0.556978   -0.618325   -1.156468
C       1.080369    0.125793   -2.379481
C      -0.022449    0.722192   -3.244318
O       1.983673    1.167311   -2.025852
C       3.027636    0.672255   -1.203908
C       2.499899    0.276013    0.174877
N       1.311693   -0.589969    0.109175
H       0.432983    2.117163   -0.454884
H      -1.268287    1.781157   -0.096148
H      -0.097787    1.854538    1.220067
H      -0.757419   -0.536050    0.600462
H       0.183065   -1.610902   -1.411395
H       1.639257   -0.612663   -2.983061
H      -0.597809    1.466164   -2.688267
H       0.409693    1.204792   -4.125415
H      -0.706251   -0.063616   -3.579575
H       3.504978   -0.193330   -1.692364
H       3.774186    1.467570   -1.120048
H       3.283880   -0.266720    0.717434
H       2.279088    1.179150    0.755218
