20

C      -0.390070    1.203912    0.647415
O      -0.206915   -0.187958    0.738123
C       1.098419   -0.597646    0.386221
C       1.190198   -2.117748    0.547612
O       2.425168   -2.586319    0.034316
C       1.015954   -2.555325    2.009962
C       0.846908   -4.065547    2.145866
O       2.209478   -2.102732    2.666553
H      -0.224333    1.571244   -0.377774
H      -1.421786    1.419932    0.936510
H       0.290127    1.750616    1.319619
H       1.326413   -0.337869   -0.659223
H       1.849054   -0.109478    1.028335
H       0.395097   -2.572555   -0.053625
H       3.064650   -2.441307    0.744776
H       0.141407   -2.034255    2.421521
H       0.818135   -4.364045    3.200541
H      -0.091779   -4.391242    1.686564
H       1.673562   -4.585331    1.654083
H       2.251068   -2.510484    3.536058
