18

N       0.172732   -1.122321   -0.136740
C       0.112539    0.031492   -0.071934
C       0.027176    1.470149    0.000934
C       0.438184    2.108775    1.323690
C       1.346660    2.222673    0.139231
C      -1.093654    2.101608   -0.798027
C      -1.282462    1.723912   -2.286798
O      -2.686756    1.474917   -2.080256
C      -2.538086    1.566458   -0.649795
H      -0.128606    2.980506    1.631103
H       0.726636    1.446421    2.130668
H       2.258711    1.638503    0.133168
H       1.411998    3.173656   -0.377518
H      -1.046056    3.184405   -0.657369
H      -1.105085    2.512436   -3.026167
H      -0.745270    0.815034   -2.589142
H      -2.602929    0.582086   -0.167247
H      -3.274146    2.240440   -0.198284
