21

C       0.986690   -1.164186   -0.506783
O       0.036992   -2.207700   -0.370323
C      -1.283710   -1.798393   -0.175209
C      -1.906284   -1.029601   -1.321545
C      -2.106248   -2.752898    0.617718
C      -1.569755   -4.085037    1.097599
C      -1.696596   -1.410659    1.261603
C      -0.702915   -1.359291    2.353206
O      -0.758170   -0.574447    3.273079
H       1.969138   -1.640235   -0.536050
H       0.844591   -0.593508   -1.433351
H       0.950024   -0.469219    0.343541
H      -1.808349   -1.600305   -2.251212
H      -2.968942   -0.856354   -1.133917
H      -1.433552   -0.053224   -1.465629
H      -3.158592   -2.775215    0.346584
H      -0.484296   -4.073883    1.199729
H      -2.011124   -4.364149    2.059506
H      -1.822394   -4.867049    0.374063
H      -2.473443   -0.659287    1.361596
H       0.124109   -2.095998    2.284401
