18

C       0.513952    1.889638   -0.634102
C       0.032642    0.456523   -0.699885
C       0.922646   -0.623004   -1.266780
N       0.530979   -0.612744    0.143628
C       1.577787   -0.362892    1.125964
C       0.411119   -1.710506   -2.153880
O       1.019189   -2.064707   -3.143320
C      -0.865619   -2.307654   -1.792809
C      -1.927505   -2.815081   -1.541459
H       1.598786    1.968054   -0.537441
H       0.222024    2.418993   -1.546379
H       0.056157    2.411937    0.213266
H      -1.033787    0.356034   -0.898723
H       1.936154   -0.319490   -1.527092
H       2.362165    0.333624    0.796153
H       1.121177    0.036505    2.036869
H       2.053967   -1.315804    1.374336
H      -2.861978   -3.269008   -1.316830
