15

O       0.188591    0.794501   -1.244351
C      -0.033966    1.254216   -0.154863
C      -1.440621    1.694434    0.257519
O      -1.473600    2.090345    1.617026
C      -1.051503    3.392252    1.847936
O       0.243017    3.737319    1.343407
C       1.313081    2.896162    1.238670
O       2.418881    3.348364    1.298148
C       1.034972    1.429233    0.920521
H      -1.786369    2.492432   -0.415060
H      -2.119157    0.843691    0.148575
H      -1.715365    4.124765    1.369717
H      -1.055975    3.524275    2.933837
H       0.691034    0.935280    1.835928
H       1.970140    0.981961    0.587588
