21

C       0.223803    1.735087   -0.166578
C       0.070690    0.212351   -0.042072
C       0.678581   -0.503495   -1.255040
C       0.696802   -0.311449    1.257304
C      -0.048106    0.068796    2.517228
O      -1.130871    0.609527    2.540882
C       0.642910   -0.295739    3.858555
C      -0.132413    0.028673    5.111429
O       1.738844   -0.806002    3.850177
H       1.282694    2.019666   -0.201447
H      -0.245835    2.098151   -1.086399
H      -0.243893    2.253236    0.674163
H      -1.001766   -0.015033   -0.003964
H       1.756609   -0.315161   -1.324870
H       0.533372   -1.587543   -1.196991
H       0.220828   -0.152887   -2.185635
H       0.752438   -1.410266    1.253970
H       1.741768    0.005970    1.366130
H      -1.094805   -0.493107    5.102388
H       0.448036   -0.258842    5.988178
H      -0.368503    1.096988    5.140291
