13

O      -0.075653   -0.043509    0.004455
C       0.009200    1.150179    0.009279
O      -1.191936    1.886736    0.028681
C      -1.226703    3.225214    0.035848
C      -0.113457    3.988449    0.025126
C       1.147142    3.329595    0.005361
C       1.231596    1.963703   -0.002589
C       2.471514    1.276589   -0.022226
C       3.530852    0.704764   -0.038855
H      -2.242012    3.603967    0.051017
H      -0.191124    5.066794    0.031548
H       2.061241    3.913330   -0.003648
H       4.458204    0.187497   -0.053337
