19

C       0.400719    0.638803   -0.234893
O      -0.802765    0.578279    0.516738
C      -1.643537   -0.509598    0.277941
C      -1.976116   -1.052528   -1.126817
N      -0.803058   -1.807056   -1.642678
C      -1.715672   -2.453180   -0.670658
C      -1.255820   -1.961539    0.685309
C      -0.168172   -2.424085    1.564547
N      -1.587364   -2.599603    1.950180
H       0.973344    1.473413    0.177688
H       0.982925   -0.285262   -0.158359
H       0.205137    0.828312   -1.297197
H      -2.586417   -0.257310    0.778708
H      -2.736063   -0.680894   -1.802891
H      -1.061214   -2.142121   -2.570919
H      -2.255278   -3.362740   -0.898812
H       0.364994   -3.343825    1.341129
H       0.415864   -1.664971    2.078906
H      -1.850658   -1.895566    2.637382
