18

C       0.114536    1.269150    0.305816
O       0.009012   -0.114778    0.061682
C       0.559663   -0.528910   -1.185973
C       2.093841   -0.627139   -1.137446
C      -0.033447   -1.818305   -1.537622
C      -0.485449   -2.889344   -1.847555
C      -1.069445   -4.170965   -2.218600
O      -0.086890   -5.195438   -2.120983
H       1.154966    1.604367    0.427686
H      -0.345564    1.861170   -0.501418
H      -0.422465    1.468079    1.236394
H       0.277548    0.206740   -1.959467
H       2.537824    0.346001   -0.910377
H       2.394293   -1.343269   -0.368952
H       2.481453   -0.964416   -2.102392
H      -1.926345   -4.374387   -1.555783
H      -1.470475   -4.100623   -3.243176
H      -0.514152   -6.024733   -2.358585
