25

C       0.052205    1.584717    0.084412
C       0.009483    0.058893   -0.058063
C      -1.408260   -0.536456   -0.071339
C      -2.224473   -0.108602   -1.305784
C      -3.530472   -0.849806   -1.420233
C      -3.821912   -1.936417   -0.706619
C      -2.867770   -2.559921    0.280294
C      -1.415793   -2.078005    0.084662
C      -0.741141   -2.823900   -1.078400
H       1.084451    1.943410    0.147697
H      -0.416598    2.088049   -0.766815
H      -0.469119    1.912055    0.991236
H       0.541424   -0.230858   -0.973105
H       0.568222   -0.390822    0.773450
H      -1.933394   -0.140765    0.811513
H      -2.424138    0.969438   -1.267814
H      -1.631410   -0.257379   -2.222021
H      -4.257847   -0.456472   -2.127141
H      -4.792956   -2.412796   -0.822346
H      -3.203330   -2.332890    1.303278
H      -2.912504   -3.653924    0.197113
H      -0.854720   -2.316566    0.998026
H      -1.285067   -2.684229   -2.017657
H       0.290375   -2.494114   -1.231832
H      -0.713868   -3.899426   -0.873645
