20

C      -0.429137    1.195748   -0.107238
C       0.256097   -0.166819    0.024561
C       0.681612   -0.731223   -1.322702
O       1.331122   -1.983812   -1.106888
C       1.761897   -2.579344   -2.297601
C       2.066142   -4.051953   -2.213479
C       0.805568   -3.575677   -2.905660
O      -0.434861   -3.747453   -2.291117
H       0.237925    1.935370   -0.563402
H      -1.328525    1.132109   -0.729441
H      -0.729555    1.579441    0.871765
H       1.142067   -0.088585    0.664773
H      -0.417455   -0.882671    0.510646
H      -0.186351   -0.865288   -1.985439
H       1.376279   -0.039920   -1.826671
H       2.375816   -1.937161   -2.929001
H       2.887244   -4.443039   -2.804429
H       1.939811   -4.514055   -1.239757
H       0.727820   -3.666859   -3.983903
H      -0.357690   -3.337276   -1.419051
