16

C      -0.061971    1.473262    0.040386
C       0.077680   -0.007899   -0.000484
C       0.265103   -0.986318   -1.106474
C       0.853930   -2.023979   -0.118240
C       0.668922   -1.038555    1.009659
C      -0.491604   -1.950388    0.605592
C      -1.189534   -2.964352    1.387228
O      -2.379998   -3.162329    1.383614
N      -1.052938   -0.936963   -0.370319
H       0.917422    1.963777    0.036239
H      -0.624926    1.815804   -0.833027
H      -0.603306    1.791320    0.937894
H       0.331637   -0.869920   -2.181053
H       1.533733   -2.858676   -0.212074
H       1.176119   -0.961381    1.961235
H      -0.492057   -3.566760    2.018406
