19

C      -0.201320    1.506059   -0.076095
N       0.052883    0.078605    0.040484
C       1.379815   -0.519262   -0.180969
C       2.588122    0.360497   -0.096233
C       2.709508    0.896792    1.122970
C       1.638715    0.404124    2.034989
C       1.890725    0.153434    3.481192
N       1.024500    1.265115    3.072747
C       0.749283   -0.482472    1.185463
H       0.639746    2.155509    0.201817
H      -0.477007    1.725384   -1.112747
H      -1.050062    1.755113    0.566802
H       1.387978   -1.396931   -0.820804
H       3.239623    0.555064   -0.939653
H       3.452911    1.622918    1.437149
H       1.375802   -0.668810    3.972889
H       2.882600    0.367752    3.871432
H       1.533410    2.144899    3.131047
H       0.275302   -1.340243    1.654875
