16

C       0.152976    1.499462   -0.192542
C       0.038891    0.001120    0.077323
C       0.440195   -0.854532   -1.130203
O       0.522539   -0.431222   -2.250841
N       0.786234   -0.437816    1.248682
C       2.098485   -0.297223    1.543761
N       2.381918   -0.887621    2.689615
C       1.176675   -1.396243    3.064034
N       0.179184   -1.157152    2.228090
H       1.187336    1.790306   -0.394254
H      -0.435255    1.751308   -1.076670
H      -0.214997    2.070304    0.662494
H      -1.000071   -0.265586    0.306248
H       0.641400   -1.918918   -0.879884
H       2.791423    0.237546    0.911820
H       1.028450   -1.954761    3.976111
