14

N      -0.036605    1.312199    0.011183
C      -0.075335    0.051606    0.003802
O       1.064922   -0.762009   -0.006987
C       0.741554   -2.166639   -0.013832
C      -0.745942   -2.142029   -0.005990
C      -1.211372   -0.863215    0.004134
N      -2.584704   -0.821378    0.011397
C      -2.934281   -2.085668    0.005771
N      -1.847898   -2.945578   -0.005220
H       0.930071    1.641117    0.008179
H       1.181086   -2.627084   -0.907984
H       1.190300   -2.637872    0.870063
H      -3.946683   -2.462159    0.008787
H      -1.886655   -3.951271   -0.011112
