20

O      -0.212055    1.409999   -0.070503
C      -0.059222   -0.000374   -0.077476
C      -1.450619   -0.614965    0.001160
C      -1.420721   -2.136478   -0.002341
O      -2.749221   -2.611886    0.073589
C      -2.856200   -4.023092    0.060926
C      -4.340371   -4.347401   -0.008015
O      -4.933468   -3.795867   -1.166308
H       0.661981    1.807670   -0.119890
H       0.450432   -0.341712   -0.993785
H       0.549486   -0.339617    0.777142
H      -1.947476   -0.263234    0.911409
H      -2.046184   -0.261310   -0.847355
H      -0.934447   -2.515470   -0.917625
H      -0.835047   -2.515553    0.852680
H      -2.340166   -4.436753   -0.820601
H      -2.399691   -4.461780    0.963789
H      -4.480923   -5.432342   -0.054141
H      -4.829322   -3.981491    0.909125
H      -4.649587   -2.874169   -1.187437
