17

C      -0.163606    1.366588   -0.088607
N      -0.035088   -0.068907    0.013235
N      -0.071317   -0.851394   -1.100805
C       0.111029   -2.088048   -0.652498
C       0.161674   -3.238715   -1.605856
O      -0.536503   -4.336543   -1.027354
C       0.267826   -2.130447    0.752442
C       0.165731   -0.807338    1.128805
O       0.224068   -0.173259    2.323060
H       0.786059    1.833425   -0.372300
H      -0.912302    1.597337   -0.848185
H      -0.481465    1.764506    0.876080
H      -0.279744   -2.920629   -2.560972
H       1.211380   -3.513058   -1.803083
H      -0.396351   -5.102015   -1.592489
H       0.404515   -2.993320    1.382341
H       0.297470   -0.836409    3.016069
