18

O      -0.024302    1.434151    0.071116
C       0.070354    0.015905    0.031511
C      -1.356421   -0.522176    0.066524
C      -1.429618   -2.044772    0.015734
O      -0.759996   -2.567869    1.137102
C      -2.847865   -2.608032   -0.298511
O      -2.382400   -3.036938   -1.620183
C      -1.086149   -2.681609   -1.331447
N      -0.013820   -2.890801   -1.948336
H       0.868394    1.790745    0.059442
H       0.575651   -0.330417   -0.881503
H       0.628051   -0.376985    0.892034
H      -1.844640   -0.184674    0.988403
H      -1.919249   -0.100340   -0.773181
H      -0.360206   -3.409521    0.893957
H      -3.133630   -3.466869    0.313376
H      -3.667244   -1.891355   -0.382012
H      -0.170777   -3.406667   -2.816365
