16

O       0.126067    1.429006   -0.141077
C       0.083157    0.017133   -0.030865
C      -1.351639   -0.517681   -0.034647
C      -1.406389   -2.050729    0.030283
N      -0.925403   -2.593843    1.306665
C      -1.885822   -3.281299    1.762304
O      -3.047611   -3.365462    1.035034
C      -2.829825   -2.587937   -0.107386
O      -3.658360   -2.435315   -0.946138
H      -0.202386    1.802229    0.682969
H       0.621075   -0.366257   -0.905603
H       0.613922   -0.341532    0.861635
H      -1.902951   -0.105451    0.820117
H      -1.865799   -0.189865   -0.943757
H      -0.799622   -2.465258   -0.785972
H      -1.899077   -3.833009    2.694527
