18

C      -0.010209    1.508308   -0.010595
C       1.434106    2.050333    0.013672
N       2.208382    1.666013    1.201743
C       1.933630    0.353534    1.627349
C       0.971401   -0.435022    1.072265
C      -0.026295   -0.036096    0.046152
O       1.006132   -1.683060    1.628934
C       1.995174   -1.664856    2.563271
C       2.605316   -0.451497    2.609400
H      -0.559422    1.908545    0.850091
H      -0.519249    1.861345   -0.913161
H       1.966193    1.673383   -0.870565
H       1.435456    3.141863   -0.055014
H       2.122233    2.342190    1.951189
H      -1.027541   -0.399936    0.304951
H       0.210570   -0.457970   -0.941131
H       2.145094   -2.585939    3.102012
H       3.428349   -0.165569    3.245553
