18

O      -0.017149   -0.177828   -0.004975
C      -0.017768    1.033540    0.074205
C      -1.284615    1.871433   -0.038573
C      -1.636374    2.423394    1.316620
C      -1.237812    3.621575    1.736469
C      -0.466908    4.595668    0.878100
C       0.964505    4.211174    0.566497
C       1.580852    3.041489    0.347452
N       1.175601    1.701123    0.302758
H      -1.123352    2.676346   -0.762772
H      -2.058202    1.203577   -0.420648
H      -2.171608    1.756447    1.986733
H      -1.463350    3.932772    2.752780
H      -1.011298    4.781000   -0.060994
H      -0.438619    5.566776    1.381943
H       1.638351    5.060659    0.490289
H       2.650543    3.101100    0.165154
H       1.936236    1.036046    0.321997
