20

C      -0.646082    1.351466   -0.040386
C      -0.060657   -0.053582   -0.076488
C       1.149739   -0.385792   -1.005002
C       2.331596    0.603959   -1.010826
O       2.971199   -0.052347    0.109083
C       1.906581   -1.019844    0.200473
C       0.768842   -0.573192    1.120250
C       0.887638   -0.012405    2.480954
N       0.291179   -1.347612    2.261999
H       0.114533    2.103673    0.188812
H      -1.103968    1.612792   -1.000606
H      -1.426145    1.429658    0.725485
H      -0.860871   -0.772540   -0.294990
H       0.935286   -0.903695   -1.938428
H       2.958451    0.550753   -1.909315
H       2.103028    1.656501   -0.803803
H       2.263221   -2.049202    0.282807
H       1.851603   -0.014751    2.981297
H       0.234506    0.813173    2.753456
H      -0.724101   -1.288415    2.320459
