17

O       0.037148   -0.055562    0.001796
C      -0.022941    1.159731    0.009502
N      -1.231294    1.841823    0.029232
C      -1.320469    3.228590    0.039748
C      -0.235852    4.005487    0.028825
C       1.122246    3.416425    0.004505
C       2.233194    4.096450   -0.768390
C       2.257902    4.090515    0.745639
N       1.081694    1.969829    0.000131
H      -2.050103    1.259025    0.037781
H      -2.327173    3.627569    0.057274
H      -0.328223    5.083151    0.037149
H       2.939246    3.458584   -1.290985
H       2.006439    5.023984   -1.283364
H       2.048220    5.013944    1.275026
H       2.980627    3.448772    1.239938
H       1.950002    1.458760   -0.015036
