17

N       0.974243   -0.100070    0.253725
C      -0.182380    0.361376   -0.000864
N      -1.302182   -0.466920    0.039490
C      -1.109318   -1.888705    0.354015
C      -2.423630   -2.516427    0.782716
O      -3.420634   -2.267535   -0.190743
C      -3.731777   -0.895163   -0.247815
C      -2.543350    0.064676   -0.286504
O      -2.713538    1.235596   -0.557578
H       1.668822    0.641218    0.184056
H      -0.445472    1.385571   -0.265008
H      -0.711888   -2.404199   -0.527656
H      -0.353781   -1.959808    1.140146
H      -2.313008   -3.600661    0.861023
H      -2.737606   -2.128609    1.765837
H      -4.319491   -0.722191   -1.152105
H      -4.350139   -0.588344    0.613105
