22

C      -0.199360    1.229824   -0.379183
C       1.206072    1.028846    0.073042
N       0.243109   -0.066744    0.115921
C      -0.205541   -0.522278    1.401930
C      -0.593524    0.367586    2.644354
C      -1.323856   -0.936745    3.071673
C      -1.610019   -1.166957    1.560669
C      -0.146136   -1.898272    3.327895
C       0.705981   -1.581049    2.058789
H      -0.839714    1.839777    0.253925
H      -0.437448    1.268255   -1.438498
H       2.012792    0.925211   -0.647220
H       1.490344    1.497294    1.013549
H       0.205628    0.744052    3.290425
H      -1.291994    1.170252    2.396522
H      -2.129116   -0.916592    3.805356
H      -2.406354   -0.523613    1.178299
H      -1.745273   -2.192541    1.204580
H       0.380369   -1.670043    4.259392
H      -0.465303   -2.943698    3.370638
H       0.845045   -2.443932    1.402358
H       1.694016   -1.175564    2.296391
