11

O       0.017061    0.011716    0.056215
C       0.050840    1.197372    0.112916
O       1.110146    1.912369   -0.357180
C       1.053597    3.338226   -0.222138
C       2.152061    3.820207    0.608187
C       3.040596    4.223718    1.305018
C       1.083784    3.942089   -1.568334
N       1.083562    4.429677   -2.614265
H      -0.744062    1.839123    0.539649
H       0.096484    3.623024    0.241732
H       3.834240    4.577803    1.917422
