20

C      -0.720280    1.433083   -0.775742
C       0.147954    0.331178   -0.133004
C      -0.671984   -0.605585    0.756438
C       0.853425   -0.447079   -1.229084
O       0.572065   -1.551962   -1.611491
O       1.857859    0.305539   -1.767062
C       2.600336   -0.207650   -2.836448
C       3.482298   -1.367051   -2.468631
N       2.491727    0.412516   -3.925662
H      -0.120083    2.088660   -1.410578
H      -1.513446    0.991636   -1.387948
H      -1.191689    2.037905    0.004204
H       0.929802    0.822995    0.457550
H      -1.430035   -1.129943    0.168816
H      -0.040766   -1.361739    1.231302
H      -1.174497   -0.034181    1.542383
H       2.863963   -2.223546   -2.189823
H       4.128607   -1.641795   -3.304218
H       4.103237   -1.105085   -1.605698
H       3.117489    0.011630   -4.624147
