19

C       0.297409    1.390063   -0.195723
C      -0.064771   -0.083095    0.030735
C      -1.582112   -0.260244    0.181067
O       0.375771   -0.845051   -1.121553
C       1.284078   -1.866206   -0.748722
C       2.623751   -1.661440   -1.460715
O       3.422173   -2.537657   -1.656453
C       1.449571   -1.719042    0.744758
C       0.702977   -0.708687    1.171672
H       1.377677    1.506286   -0.315510
H      -0.194720    1.760987   -1.099568
H      -0.026483    2.006065    0.649367
H      -2.091562    0.105890   -0.715171
H      -1.833139   -1.315331    0.316922
H      -1.957905    0.300233    1.043268
H       0.903076   -2.859073   -1.031589
H       2.798278   -0.603662   -1.762489
H       2.100223   -2.359812    1.324782
H       0.609072   -0.361157    2.193078
