20

C      -0.094360    1.551676   -0.038280
C      -0.128745    0.022556   -0.076954
C       0.880840   -0.567249   -1.078077
C       0.814492   -2.058040   -1.157325
N       1.811542   -2.843348   -0.767803
N       1.322995   -4.088130   -0.997427
C       2.115592   -5.261413   -0.706101
C       0.078123   -3.994286   -1.504017
N      -0.281944   -2.731387   -1.621160
H       0.896171    1.920712    0.250922
H      -0.331536    1.978014   -1.019538
H      -0.819340    1.946981    0.680036
H       0.082260   -0.380604    0.921167
H      -1.132034   -0.325788   -0.345732
H       0.680577   -0.150601   -2.073188
H       1.900579   -0.279953   -0.803274
H       2.370663   -5.291313    0.356333
H       1.536211   -6.150008   -0.963615
H       3.038721   -5.249333   -1.291262
H      -0.512093   -4.859651   -1.768445
