18

C      -0.011228    1.509456   -0.170801
C      -0.039837   -0.018555    0.021721
C       0.733457   -0.455728    1.300745
C       2.147494   -0.091607    1.251882
N       3.263727    0.201840    1.191882
C      -1.407749   -0.528373    0.083160
C      -2.537946   -0.937659    0.170397
C      -3.902305   -1.466371    0.215555
O      -3.986343   -2.847609   -0.102371
H       1.020263    1.866694   -0.232707
H      -0.532311    1.786461   -1.090020
H      -0.506267    2.013073    0.665030
H       0.465478   -0.481413   -0.835778
H       0.275222    0.006684    2.181659
H       0.651539   -1.539235    1.429636
H      -4.308431   -1.369785    1.228503
H      -4.546738   -0.861103   -0.441868
H      -3.563844   -2.974146   -0.958352
