18

C       0.219716    1.581692   -0.163114
C       0.016986    0.086092    0.079476
O       0.441194   -0.645027   -1.075140
C       1.360908   -1.669844   -0.716251
C       1.569650   -1.507777    0.760061
C       0.812701   -0.517217    1.219301
C       0.665126   -0.084169    2.655745
C       1.258127    1.225825    2.947165
N       1.729247    2.254284    3.182084
H       1.281768    1.813763   -0.278982
H      -0.303833    1.871467   -1.078132
H      -0.177816    2.177209    0.664062
H      -1.060847   -0.098079    0.241797
H       0.947389   -2.660781   -0.965770
H       2.291046   -1.554930   -1.293338
H       2.233717   -2.136412    1.341064
H      -0.396919   -0.039336    2.931696
H       1.131763   -0.820894    3.317640
