16

C       0.250600    1.450961    0.157651
C       0.146086   -0.000382    0.096902
C       0.041194   -1.200480    0.065274
C      -0.080860   -2.654705    0.003153
N      -1.479942   -3.087397    0.040623
C       0.692223   -3.283364   -1.199683
N       1.823594   -2.638355   -1.576088
O       0.310696   -4.328964   -1.688905
H       1.120037    1.762422    0.746743
H       0.348628    1.890053   -0.841156
H      -0.638607    1.886502    0.625983
H       0.417782   -3.078447    0.889826
H      -2.000164   -2.545133   -0.644848
H      -1.486374   -4.044731   -0.311234
H       2.000990   -1.700998   -1.255737
H       2.342117   -2.999322   -2.360441
