18

C      -0.274825    1.484524    0.030162
N       0.143919    0.093054    0.025315
C       1.237974   -0.354970   -0.874330
C       1.917283   -1.079793    0.288560
C       2.404493   -2.463823    0.259029
O       2.407130   -3.164170   -0.725811
C       2.222957   -0.109499    1.395494
O       2.780990    1.121608    1.047382
C       0.784358   -0.468763    1.197610
H       0.554071    2.200224    0.142446
H      -0.796217    1.706898   -0.906802
H      -0.985860    1.640775    0.848512
H       0.886269   -1.034734   -1.654024
H       1.835766    0.449928   -1.315412
H       2.780581   -2.842484    1.237558
H       2.673354   -0.592237    2.267081
H       2.504868    1.771118    1.702800
H       0.197174   -0.957304    1.971291
