15

C      -0.017476    1.520420   -0.091110
C      -0.006611    0.032332    0.042266
N      -0.033849   -0.750822   -1.041080
N      -0.015552   -2.043307   -0.612148
C       0.023607   -2.101315    0.742604
C       0.030214   -0.790404    1.191760
N       0.070041   -0.914959    2.570854
C       0.083871   -2.266105    2.829699
N       0.056672   -3.024729    1.749047
H       0.876814    1.973042    0.353012
H      -0.049882    1.791703   -1.148170
H      -0.888233    1.964799    0.405039
H      -0.030974   -2.785491   -1.288394
H       0.086544   -0.185091    3.261259
H       0.114541   -2.641029    3.842614
