19

C      -0.172338    1.419049   -0.140154
C      -0.127444   -0.048944    0.194546
O       1.101919   -0.753083   -0.027134
C       0.618607   -0.647302    1.316963
C       1.469457    0.094857    2.277581
C       2.464004    1.250073    2.063809
C       3.291447    0.703217    3.279090
C       2.252055   -0.415056    3.423614
O       0.975536    0.203630    3.622253
H       0.725965    1.940935    0.191144
H      -0.266829    1.554637   -1.222729
H      -1.042761    1.886513    0.332514
H      -1.004108   -0.610498   -0.136735
H       0.227112   -1.575822    1.737216
H       3.000733    1.169083    1.117210
H       2.040790    2.251424    2.170135
H       4.276951    0.337402    2.982790
H       3.388466    1.359200    4.147066
H       2.373451   -1.423924    3.802738
