15

O      -0.118632   -0.020300    0.124450
C      -0.055922    1.194456    0.124523
C       1.172814    1.944776    0.080717
C       1.304423    3.287343   -0.036398
N       2.592225    3.695908   -0.216432
C       3.507617    2.570154    0.029950
C       2.564203    1.317761   -0.003618
C       2.877124    0.381695    1.077370
N       3.179434   -0.324444    1.940334
H      -0.976808    1.820488    0.155143
H       0.503597    4.017141   -0.048813
H       2.874437    4.630758    0.033143
H       4.286212    2.521618   -0.734263
H       3.988036    2.663520    1.009857
H       2.673238    0.774448   -0.950071
