18

O       0.092394    1.356438   -0.097109
C       0.055837   -0.039220    0.010104
C       0.814342   -0.709408   -1.158250
O       1.050595   -2.053498   -0.701848
C       0.489221   -2.128450    0.630024
C       0.774917   -0.734427    1.193801
C      -1.030606   -2.120632    0.429633
N      -1.778428   -1.211506    1.330901
C      -1.317997   -0.726712    0.009775
H      -0.396867    1.722650    0.647184
H       0.232027   -0.725247   -2.087081
H       1.766261   -0.197787   -1.345366
H       0.922882   -2.993395    1.130855
H       1.842544   -0.510144    1.215202
H       0.312069   -0.539379    2.159452
H      -1.524584   -2.978212   -0.011999
H      -2.767693   -1.438652    1.259515
H      -2.036677   -0.478477   -0.764401
