12

N       0.034463   -3.717333   -0.030209
C       0.026541   -2.554907   -0.018703
C       0.018638   -1.191551   -0.004271
C       0.016774    0.018788    0.012008
C       0.008926    1.443628    0.027552
C       0.495716    2.194394    1.263109
C       1.326490    2.212518    0.020602
H      -0.814048    1.897455   -0.516084
H      -0.058496    3.084893    1.535632
H       0.836688    1.595363    2.098636
H       2.236895    1.625909    0.004485
H       1.354473    3.115717   -0.577610
