12

N      -0.115915    1.305436    0.009930
N       1.083045    1.916264    0.002277
H       1.026943    2.925265    0.008418
C       2.292333    1.309265   -0.012261
N       2.470719    0.009960   -0.021148
C       1.317165   -0.682806   -0.014381
N       1.116702   -1.988167   -0.019743
C      -0.258946   -2.060592   -0.007538
N      -0.974932   -0.935516    0.005326
C       0.006111    0.001445    0.001541
H       3.145449    1.980765   -0.016375
H      -0.745240   -3.029515   -0.008429
