14

C       0.076521    1.575966   -0.005999
C       0.006903    0.045843    0.006593
O       0.685579   -0.376318    1.171477
C      -1.465498   -0.469970   -0.006374
C      -2.215854   -0.015295    1.160283
N      -2.817171    0.348038    2.076928
C       0.671162   -0.505387   -1.200436
N       1.182407   -0.967714   -2.127689
H       1.120528    1.893143    0.004814
H      -0.410920    1.980747   -0.895731
H      -0.420642    1.960589    0.887264
H       0.742858   -1.339102    1.180625
H      -1.969011   -0.133059   -0.918512
H      -1.466795   -1.565363   -0.029050
