18

C      -0.035853    1.461874    0.044793
C       0.066841   -0.028332    0.052145
C       0.283497   -1.023506   -1.026934
C       0.626840   -2.076991    0.054104
C      -0.875691   -2.095108    0.467212
C      -0.544696   -1.587827    1.879312
C       0.670680   -0.949113    1.152547
O       1.864696   -0.599529    1.764164
N      -1.082634   -0.867408   -0.419926
H       0.954939    1.922459    0.128934
H      -0.495712    1.808774   -0.884836
H      -0.655372    1.820512    0.875611
H       0.472650   -0.925397   -2.089395
H       1.311735   -2.919627    0.025470
H      -1.584085   -2.895560    0.264569
H      -1.268920   -0.943872    2.387557
H      -0.225668   -2.404839    2.533624
H       1.724908    0.207668    2.272402
