19

C      -0.038785    1.523228   -0.026019
O       1.423882    1.496012    0.117338
C       1.354529    0.098853    0.410612
C       0.976044   -0.380131    1.847764
C      -0.106904   -1.131613    1.066934
C       0.622189   -1.899090   -0.155150
C      -0.243986   -1.055080   -1.139929
C      -0.128304   -0.019514   -0.031514
C       1.992984   -1.134435   -0.224540
H      -0.512846    2.042868    0.814275
H      -0.329798    2.005974   -0.964235
H       1.715474   -0.941276    2.425860
H       0.561752    0.429033    2.453351
H      -0.978241   -1.621285    1.504925
H       0.634676   -2.988431   -0.196071
H       0.174357   -0.843263   -2.129638
H      -1.261842   -1.444871   -1.242371
H       2.326444   -0.999672   -1.255809
H       2.799433   -1.582049    0.361678
