20

C       0.167408    1.320011   -0.223917
O       0.113809   -0.093124   -0.114039
C      -1.174899   -0.610447   -0.041161
O      -1.887528   -0.397749   -1.269500
C      -1.756634   -1.494841   -2.091600
N      -2.224087   -1.567173   -3.259924
C      -0.998325   -2.575173   -1.356016
C      -1.108525   -2.139002    0.114338
C      -0.015877   -2.649345    1.047638
H       1.222729    1.598924   -0.218482
H      -0.297712    1.667252   -1.153155
H      -0.336584    1.802154    0.626720
H      -1.756073   -0.095598    0.736199
H      -2.685095   -0.691884   -3.515614
H      -1.412023   -3.560821   -1.570544
H       0.047389   -2.568301   -1.683348
H      -2.089129   -2.450695    0.493583
H       0.970178   -2.328954    0.704167
H      -0.156247   -2.273358    2.066308
H      -0.031255   -3.742717    1.090990
