19

C      -0.087762   -1.257048   -0.145512
C      -0.040336   -0.057671   -0.061819
C      -0.002138    1.389008    0.020069
C       0.045918    2.080862    1.415793
C       1.545420    1.663551    1.571255
C       2.286128    2.755133    2.342776
C       1.623015    4.017820    1.719909
C       0.660420    3.348575    0.739961
C       1.372165    2.121146    0.085519
H      -0.127691   -2.315546   -0.217498
H      -0.717773    1.834079   -0.679921
H      -0.729672    2.051564    2.183648
H       1.781104    0.619326    1.774604
H       2.121512    2.680056    3.422337
H       3.366886    2.717884    2.173179
H       1.097204    4.629139    2.460235
H       2.342657    4.666971    1.210999
H       0.019006    3.978236    0.119557
H       2.137843    2.138663   -0.692575
