15

C      -0.017347    1.542438    0.001391
C      -0.007748    0.046955    0.024415
C      -0.034363   -0.798450   -1.049452
O      -0.016411   -2.130691   -0.712885
C       0.023672   -2.138887    0.646538
C       0.030644   -0.851151    1.145725
N       0.071072   -0.987821    2.496258
N       0.089939   -2.295516    2.870473
C       0.061167   -3.013094    1.744417
H       0.876999    1.958233    0.479814
H      -0.049925    1.916620   -1.025179
H      -0.886769    1.947702    0.531948
H      -0.066780   -0.595109   -2.108421
H       0.088112   -0.285738    3.213975
H       0.069010   -4.090238    1.791469
