20

C      -0.065939    1.538844   -0.055642
N       0.106948    0.093978   -0.008465
C       0.644278   -0.583314   -1.157256
C       2.235585   -0.603803   -1.191285
C       2.944843    0.337618   -0.295740
C       2.396857    0.315662    0.932513
C       2.739615    1.157998    2.119609
C       1.172009   -0.572757    0.866479
C       1.429178   -1.541809   -0.329749
H       0.835417    2.099406   -0.346355
H      -0.852619    1.761186   -0.785322
H      -0.407039    1.899143    0.920606
H       0.071235   -0.707481   -2.070014
H       2.675059   -0.963674   -2.114345
H       3.744057    0.994013   -0.621215
H       3.652936    1.734720    1.947218
H       1.938617    1.868310    2.363406
H       2.891539    0.542431    3.015758
H       0.766111   -0.944633    1.808898
H       1.465625   -2.623292   -0.322562
