19

C      -0.017851    1.479221    0.010282
C       0.001713    0.022657    0.002092
C       0.017939   -1.181937   -0.004637
C       0.037922   -2.650602   -0.012634
C      -1.409669   -3.183486   -0.108294
C       0.852680   -3.146535   -1.228746
C       0.691937   -3.162315    1.290901
H       0.555858    1.891276   -0.827536
H      -1.040254    1.865583   -0.069005
H       0.414766    1.879450    0.934151
H      -1.894611   -2.833534   -1.024066
H      -1.410170   -4.279064   -0.115099
H      -2.007339   -2.844445    0.742648
H       1.882609   -2.781170   -1.183654
H       0.876057   -4.241724   -1.247660
H       0.409203   -2.795655   -2.164949
H       0.132609   -2.823058    2.167450
H       0.713881   -4.257670    1.298846
H       1.718836   -2.796965    1.381793
