19

C      -0.676620    1.228573    0.515884
O      -0.276702    0.151994   -0.318293
C      -1.256134   -0.821739   -0.472129
C      -0.922746   -1.908901   -1.500489
O      -1.181446   -2.960174   -0.545780
C      -1.288887   -2.023444    0.553377
C      -0.114776   -2.104116    1.517084
C      -2.619147   -2.175473    1.263086
O      -2.953178   -1.495872    2.201154
H       0.179127    1.900784    0.601993
H      -1.522826    1.775552    0.075187
H      -0.970222    0.881710    1.514936
H      -2.245856   -0.365998   -0.612330
H      -1.571882   -1.979002   -2.379141
H       0.126925   -1.881379   -1.816371
H       0.804285   -1.768621    1.032977
H      -0.305878   -1.479916    2.393962
H       0.013587   -3.139153    1.847470
H      -3.282422   -2.951387    0.819813
