16

C      -0.004115    1.485730    0.021100
C       0.011001   -0.017148   -0.003179
C      -0.861667   -0.893086    0.880627
C      -0.747175   -2.312192    0.230407
C       0.714146   -2.300677    0.429956
C       0.628117   -0.881371    1.084116
N       0.156373   -2.177790   -0.943298
C       0.192714   -0.768799   -1.290554
O       0.340189   -0.336981   -2.395486
H       0.936970    1.886164   -0.367568
H      -0.812275    1.872416   -0.606912
H      -0.145948    1.868111    1.035751
H      -1.655670   -0.515344    1.508081
H      -1.479714   -3.107944    0.229291
H       1.432391   -3.084994    0.626948
H       1.218846   -0.492746    1.900718
