17

C       0.156551    1.324609    0.198072
O      -0.350367    0.079299   -0.235061
C       0.429823   -0.526997   -1.207213
C       1.805382   -1.211090   -0.827926
C       1.366684   -2.263035    0.170265
C       0.211583   -2.742124   -0.328009
C      -0.005141   -1.964679   -1.614089
C       1.495755   -2.081970   -2.115011
O       2.093391   -2.582370   -3.006842
H       1.129332    1.215607    0.698652
H       0.272766    2.028942   -0.639947
H      -0.563689    1.735223    0.908776
H       0.555991    0.129598   -2.084561
H       2.735192   -0.666065   -0.687706
H       1.938533   -2.603332    1.020970
H      -0.391049   -3.571288    0.011923
H      -0.870757   -2.164791   -2.239775
