17

N      -0.076461    1.399272   -0.142507
C      -0.064810    0.025023   -0.092180
N      -1.136108   -0.658529   -0.060259
C      -1.036223   -2.084471   -0.058271
C      -1.496644   -2.856508   -1.276878
C      -0.035609   -2.790263   -0.944560
O       0.721379   -1.964769   -1.795150
C       1.705373   -1.247484   -1.135408
O       1.222156   -0.455919   -0.042710
H       0.752664    1.849654    0.210780
H      -0.951595    1.820682    0.129421
H      -1.254557   -2.539911    0.905826
H      -2.016643   -3.798127   -1.141129
H      -1.814217   -2.264677   -2.127665
H       0.491353   -3.676526   -0.592402
H       2.468882   -1.892502   -0.678609
H       2.158573   -0.596578   -1.891608
