19

C       0.272477    1.609154    0.726643
C       0.142402    0.133316    0.374221
C       0.767882   -0.432604   -0.933158
N       1.499071   -1.523569   -0.187938
C       2.428287   -0.810950    0.713378
C       1.007545   -0.902959    1.103192
C       0.529317   -1.764590    2.251729
C       0.460315   -1.014491    3.507450
N       0.403911   -0.400629    4.484814
H       1.311292    1.949013    0.672690
H      -0.314688    2.224573    0.036623
H      -0.089931    1.802912    1.741328
H      -0.909326   -0.165396    0.435883
H       0.049077   -0.864491   -1.631373
H       1.440320    0.237073   -1.480044
H       3.128440   -1.473511    1.213271
H       2.856575    0.134587    0.389456
H      -0.465079   -2.172401    2.033020
H       1.202138   -2.619243    2.380217
