17

C       0.085782    1.525092    0.024497
C       0.004274    0.034230   -0.008829
C      -1.084627   -0.751367    0.039909
C      -2.535367   -0.419319    0.140193
N      -0.711182   -2.114033   -0.018967
C       0.655330   -2.281044   -0.109633
O       1.245520   -3.335129   -0.173923
C       1.223269   -0.853812   -0.109061
H       0.682091    1.876465    0.876996
H       0.570307    1.921808   -0.877534
H      -0.900619    1.990564    0.099342
H      -3.091759   -0.810689   -0.720639
H      -2.981231   -0.860141    1.040537
H      -2.691613    0.659519    0.180273
H      -1.349967   -2.891849    0.001751
H       1.809063   -0.692308   -1.022488
H       1.920855   -0.737098    0.729547
