18

C      -0.147017    1.553380    0.026371
C       0.064321    0.038308   -0.024543
C       0.848117   -0.494533   -1.244214
C       1.933926   -1.353144   -0.646583
C       1.953574   -1.349093    0.694115
C       2.879313   -2.046506    1.636268
C       0.862733   -0.469967    1.188854
O       0.639628   -0.191044    2.346550
H       0.806483    2.085251   -0.064944
H      -0.801465    1.891557   -0.782627
H      -0.596924    1.833459    0.982557
H      -0.915878   -0.452615    0.027485
H       0.220470   -1.066313   -1.938378
H       1.282725    0.322477   -1.835867
H       2.631592   -1.904606   -1.270225
H       3.644834   -2.619259    1.106852
H       3.371775   -1.322937    2.294813
H       2.323536   -2.726299    2.291582
