21

C       0.034806   -1.199522    0.019068
C       0.001551   -0.003264    0.134149
C      -0.004483    1.450181    0.268875
C       1.394401    2.058569    0.093746
C       2.002016    2.079050   -1.345055
C       1.177242    3.377086   -1.589667
C       1.478346    3.609648   -0.079476
C       3.005314    3.824343   -0.100218
C       3.405091    2.654780   -1.067349
H       0.051161   -2.256319   -0.080497
H      -0.715692    1.874297   -0.448493
H      -0.385871    1.719044    1.263151
H       2.049990    1.637612    0.864641
H       1.932068    1.212793   -2.003235
H       1.575739    4.104966   -2.303062
H       0.124526    3.196848   -1.808803
H       0.883191    4.289140    0.533280
H       3.279279    4.808096   -0.491953
H       3.453443    3.721419    0.892319
H       4.066839    1.924739   -0.592511
H       3.895404    3.010318   -1.978041
