14

N       0.079784    1.345709    0.087961
C      -0.028590   -0.008796    0.039605
C      -1.147375   -0.778868   -0.016957
C      -0.796666   -2.199107    0.008986
O      -1.529810   -3.165029    0.027298
C       0.734027   -2.258940    0.030953
N       1.349573   -1.651412   -1.183285
C       1.206709   -0.863484    0.071764
H       0.959399    1.763399   -0.169025
H      -0.733809    1.901318   -0.124308
H      -2.164792   -0.425817   -0.119375
H       1.235740   -3.078006    0.531960
H       2.312283   -1.986989   -1.242536
H       2.086927   -0.541933    0.618046
