16

N      -0.111775    1.268397   -0.421907
C      -0.119950   -0.091248   -0.160799
C      -1.123970   -1.011256   -0.025491
C      -2.608120   -0.794751   -0.182184
C      -2.967093    0.115130   -1.271074
C      -3.245375    0.882115   -2.155349
C      -0.463568   -2.238413    0.336305
C       0.862199   -1.976184    0.388316
O       1.086564   -0.653650    0.082933
H       0.746596    1.572101   -0.864018
H      -0.923655    1.555662   -0.956313
H      -3.091161   -1.763034   -0.362950
H      -3.054089   -0.414117    0.748966
H      -3.518171    1.534848   -2.947409
H      -0.936567   -3.190786    0.523754
H       1.740980   -2.557332    0.606116
