23

C      -0.041677    1.712563    0.047871
C       0.077014    0.176167    0.087119
C       0.920860   -0.260583    1.296585
C      -1.318795   -0.499382    0.107485
C      -2.220351   -0.191688    1.299179
O      -3.453101   -0.860695    1.064108
C       0.727019   -0.260140   -1.225919
C       2.156978   -0.528311   -1.425024
O       1.212677   -1.599527   -1.327975
H       0.943528    2.172849   -0.082196
H      -0.679145    2.042771   -0.779845
H      -0.468939    2.106265    0.974579
H       0.407400   -0.036240    2.235201
H       1.121386   -1.334911    1.261186
H       1.879007    0.267788    1.323622
H      -1.868055   -0.209895   -0.797473
H      -1.185388   -1.585669    0.052661
H      -1.759750   -0.541262    2.235325
H      -2.377964    0.893668    1.396715
H      -4.027623   -0.702751    1.818789
H       0.165100    0.059704   -2.107678
H       2.596874   -0.383144   -2.411126
H       2.854718   -0.450025   -0.594744
