18

C      -0.160990    1.549845   -0.074480
C      -0.001179    0.050478    0.022409
C       1.287405   -0.640302   -0.247405
O       2.449406    0.037895   -0.548256
C       0.735112   -0.640397    1.202893
C       1.480165    0.137603    2.208853
C       1.374069   -0.322142    3.648093
O       2.182469    1.098833    1.910110
H       0.727803    2.080214    0.267584
H      -0.347082    1.833314   -1.115743
H      -1.010786    1.892309    0.524594
H      -0.886306   -0.510688   -0.267722
H       1.254184   -1.601588   -0.752474
H       2.604401    0.677863    0.171509
H       0.282420   -1.555846    1.567961
H       1.723242   -1.357000    3.739531
H       1.971971    0.324960    4.290561
H       0.328397   -0.309356    3.975325
