19

C       0.622805    1.747069    0.187961
C      -0.130038    0.421790    0.021790
C       0.314754   -0.313721   -1.221397
N       1.548233   -1.085140   -1.133791
C       0.288400   -1.814808   -1.371212
C      -0.211972   -2.724237   -0.282458
C      -1.164538   -3.813812   -0.743956
O       0.099437   -2.592501    0.879123
H       1.699063    1.567779    0.271580
H       0.457038    2.415399   -0.665133
H       0.296085    2.272835    1.089959
H       0.039922   -0.220604    0.888231
H      -1.209690    0.609074   -0.043876
H       0.132227    0.223993   -2.153750
H       2.077986   -1.035601   -1.999909
H       0.097235   -2.176658   -2.379995
H      -0.652326   -4.495924   -1.433117
H      -1.532764   -4.372870    0.116593
H      -2.007167   -3.380559   -1.295329
