23

C      -0.185639    1.552318    0.035487
C       0.023143    0.031135   -0.008266
C       0.840612   -0.453810   -1.189244
C       1.834951   -1.260994   -0.818420
C       1.905837   -1.427153    0.667921
C       2.328608   -2.758336    1.244108
C       2.212830   -0.124337    1.390896
C       0.773154   -0.552468    1.204433
C      -0.052289   -0.913816    2.417235
H       0.769790    2.083621    0.082716
H      -0.719492    1.900857   -0.855011
H      -0.777067    1.841216    0.910742
H      -0.976252   -0.431542   -0.050530
H       0.625580   -0.144479   -2.206727
H       2.544789   -1.737923   -1.486991
H       3.357322   -3.001174    0.951994
H       2.294574   -2.754555    2.337441
H       1.684290   -3.571587    0.890977
H       2.606289   -0.199264    2.401286
H       2.616461    0.699908    0.812024
H      -0.526078   -0.023719    2.849286
H      -0.851188   -1.619948    2.161119
H       0.556001   -1.369614    3.203917
