16

N      -0.258725   -0.888045   -0.818241
C      -0.146903    0.168466   -0.362910
C       0.018478    1.523690    0.168123
N       0.155441    1.613480    1.641710
C       1.299531    2.557353    1.521717
C       1.410375    2.179030    0.043013
C       2.598314    1.621546   -0.673759
C       1.983248    2.932274   -1.113110
H      -0.774065    2.156046   -0.257570
H      -0.664173    1.975352    2.115370
H       1.038394    3.613047    1.679452
H       2.147683    2.301333    2.165395
H       3.553162    1.648121   -0.159051
H       2.447333    0.748280   -1.299902
H       1.422427    2.946782   -2.042328
H       2.520336    3.851632   -0.902195
