22

C      -0.047986    1.551669    0.038364
C       0.043887    0.020058    0.012382
C       0.699612   -0.496392   -1.275351
N       0.730140   -0.491051    1.199849
C       2.041856   -0.221590    1.526208
C       2.341218   -0.867001    2.700699
C       1.167635   -1.556568    3.106531
C       0.186074   -1.312944    2.169418
C      -1.225152   -1.804861    2.132921
H       0.945501    2.007557   -0.014804
H      -0.629910    1.911593   -0.815820
H      -0.529768    1.896865    0.957140
H      -0.972152   -0.380455    0.058541
H       1.720992   -0.116954   -1.377725
H       0.742747   -1.588891   -1.278717
H       0.129115   -0.168220   -2.149795
H       2.650119    0.406213    0.895148
H       3.293064   -0.845802    3.209063
H       1.044449   -2.168014    3.988215
H      -1.962420   -0.992205    2.158052
H      -1.443458   -2.413616    1.246136
H      -1.404530   -2.432473    3.009070
