20

C       0.029234    1.381962    0.071519
O       0.000295   -0.036304    0.131152
C      -1.259289   -0.589247    0.019890
C      -1.148041   -2.098326   -0.083706
C      -2.543978   -2.732312   -0.010052
C      -2.477042   -4.254986    0.114732
N      -3.330293   -2.194600    1.104347
C      -3.003557   -1.071980    1.581675
O      -2.024036   -0.218843    1.189666
H       1.080602    1.675175    0.081422
H      -0.437653    1.749038   -0.854247
H      -0.482503    1.830394    0.929723
H      -1.797178   -0.162213   -0.844220
H      -0.633879   -2.358412   -1.013315
H      -0.529741   -2.448901    0.750399
H      -3.091765   -2.494605   -0.934473
H      -1.949985   -4.541088    1.030716
H      -3.485790   -4.672628    0.162047
H      -1.951626   -4.695628   -0.738823
H      -3.537089   -0.650053    2.431878
