16

C       0.073489    1.510014    0.031791
C       0.039781    0.056543   -0.035519
C       0.003920   -1.144028   -0.089969
C      -0.039325   -2.605379   -0.156295
C      -1.388723   -3.161197   -0.039968
C      -2.497962   -3.620777    0.056499
C      -3.865012   -4.108249    0.179709
N      -3.974032   -5.466581    0.086524
O      -4.815795   -3.372252    0.357491
H       0.688866    1.855589    0.869507
H       0.487261    1.941664   -0.886007
H      -0.933321    1.919409    0.167518
H       0.406376   -2.950564   -1.100085
H       0.589494   -3.034766    0.636689
H      -3.180238   -6.045857   -0.122396
H      -4.894620   -5.873142    0.114884
