20

C       0.002657    1.526094    0.071412
C      -0.034801    0.032333    0.006434
C      -0.067038   -0.733002   -1.086280
C      -0.012980   -2.214228   -0.772454
C      -0.976595   -3.065729   -1.602025
O       1.328349   -2.720568   -0.936324
C      -0.304906   -2.240659    0.746838
C       0.004637   -0.817095    1.260703
H       0.906414    1.873480    0.588563
H      -0.014413    1.978238   -0.923948
H      -0.849069    1.918929    0.641215
H      -0.073333   -0.360801   -2.107440
H      -0.725219   -3.008246   -2.668022
H      -0.913251   -4.115184   -1.298258
H      -2.010477   -2.725738   -1.483989
H       1.603620   -2.528040   -1.839097
H      -1.361759   -2.472021    0.909281
H       0.287496   -3.019419    1.231852
H       0.995744   -0.751862    1.729856
H      -0.713846   -0.477482    2.016604
