20

C      -0.234801    1.265275   -0.264452
C       1.196266    1.303852    0.212049
C       0.477961   -0.018497    0.087587
C       0.087907   -0.773323    1.320349
C      -0.696811   -2.060257    1.346366
C      -0.301206   -2.987979    0.189386
C       1.182492   -2.948406    0.683078
C       0.761498   -2.021352    1.831577
H      -1.004824    1.616516    0.415123
H      -0.438391    1.475733   -1.308739
H       1.974460    1.541014   -0.505200
H       1.387330    1.680915    1.211778
H       0.775475   -0.631534   -0.756541
H      -0.201575   -0.112654    2.137400
H      -1.606568   -2.153510    1.928574
H      -0.734406   -3.985916    0.284850
H      -0.505739   -2.621819   -0.822060
H       1.519542   -3.925793    1.034885
H       1.934073   -2.556785   -0.010236
H       1.144696   -2.080047    2.844021
