16

C      -0.666622   -1.157809   -0.638237
C      -0.373766   -0.030506   -0.340674
C      -0.041323    1.324157    0.042947
C      -0.035596    1.678370    1.575894
C       1.358432    2.324560    1.422228
O       2.413600    1.629959    2.121523
C       2.908728    0.750300    1.211009
N       2.469232    0.742448    0.021059
C       1.455843    1.798583   -0.041461
H      -0.912539   -2.154086   -0.910689
H      -0.673868    2.028013   -0.508295
H      -0.839436    2.341164    1.901128
H      -0.012375    0.799583    2.221711
H       1.447210    3.389087    1.637592
H       3.686831    0.101095    1.596687
H       1.673643    2.487550   -0.860548
