15

N      -0.050206    1.409955    0.015198
C      -0.081028    0.018425   -0.009284
C      -1.141362   -0.836776   -0.011885
N      -2.493444   -0.515220   -0.054754
C      -0.590625   -2.175220   -0.042595
C       0.769128   -2.012146   -0.061058
O       1.103428   -0.711457   -0.050603
C      -1.327156   -3.379052   -0.036203
C      -1.996900   -4.380938   -0.018699
H       0.521607    1.779768    0.767799
H       0.267382    1.822741   -0.856942
H      -2.674019    0.428705    0.261735
H      -3.078393   -1.186269    0.425408
H       1.577671   -2.724449   -0.071119
H      -2.572740   -5.272682   -0.015981
