23

C      -0.105655    1.572233    0.170142
C      -0.049483    0.058751    0.025575
C       0.999736   -0.595401   -0.958407
C       1.257737   -1.716723    0.114343
C       2.603733   -2.113890    0.783269
C       3.810324   -1.318894    0.276476
C       2.324371   -1.811105    2.301924
C       1.240082   -0.737369    2.273930
C       0.626238   -0.772025    1.095952
H       0.885116    1.977249    0.401070
H      -0.460168    2.043797   -0.752893
H      -0.784995    1.867732    0.977043
H      -1.047060   -0.335349   -0.207603
H       0.627224   -0.913864   -1.935440
H       1.863322    0.059575   -1.097147
H       0.644145   -2.597037   -0.113240
H       2.808198   -3.179967    0.638829
H       3.679122   -0.245574    0.452964
H       4.722480   -1.629663    0.796605
H       3.968520   -1.466964   -0.796844
H       1.995205   -2.713882    2.835696
H       3.230196   -1.466088    2.815445
H       1.083434   -0.032107    3.082235
