19

N      -0.153888    1.312313    0.416838
C      -0.048043   -0.066691    0.143299
C      -1.087435   -0.919884   -0.185689
N      -0.515382   -2.151176   -0.471760
C       0.837935   -2.092530   -0.310916
C       1.165172   -0.809693    0.069181
C      -2.537007   -0.672932   -0.310981
C      -3.529361   -1.567467    0.405139
C      -3.324235   -0.154584    0.878838
H       0.471881    1.603919    1.157892
H      -1.099911    1.574212    0.666345
H      -1.039607   -2.964358   -0.740941
H       1.459322   -2.958952   -0.471102
H       2.159092   -0.436942    0.266092
H      -2.882330   -0.297247   -1.273978
H      -4.455990   -1.809569   -0.103195
H      -3.132996   -2.364289    1.024645
H      -2.788298   -0.014393    1.810787
H      -4.111244    0.568268    0.694266
