23

C      -0.351771    1.410083    0.060833
C       0.067544   -0.047530   -0.066890
C       1.417748   -0.333620   -0.765471
O       1.961499   -0.949547    0.423082
C       0.745793   -0.707637    1.138180
C       0.764286   -0.313026    2.583485
C       0.225637   -1.679038    2.155618
C      -1.271706   -1.903008    2.239163
C       1.076151   -2.897514    2.458286
H       0.461287    2.018875    0.469550
H      -0.629333    1.823762   -0.914786
H      -1.217013    1.519129    0.723603
H      -0.754598   -0.645803   -0.471138
H       1.388730   -1.032744   -1.609141
H       1.986781    0.558817   -1.055186
H       1.735994   -0.282847    3.066614
H       0.061516    0.438447    2.932299
H      -1.834688   -1.000921    1.978824
H      -1.591457   -2.703238    1.560906
H      -1.565871   -2.192826    3.254949
H       0.942584   -3.219934    3.497513
H       0.797557   -3.736801    1.810256
H       2.136271   -2.693103    2.292433
