21

C       0.016604    1.521143    0.290569
C       1.295508    0.783273   -0.021047
C       2.295736    0.412717    1.067544
C       1.662180   -0.091862    2.393893
C       0.585025   -1.134673    2.164820
C      -0.181065   -0.997853    1.088991
C      -1.203193   -1.757586    0.258837
C      -0.852360   -0.804925   -0.945525
C      -0.011989    0.033823    0.034323
H      -0.176564    1.877393    1.297603
H      -0.381189    2.161327   -0.491371
H       1.729136    0.975431   -0.999332
H       2.942083   -0.381813    0.672458
H       2.949101    1.265348    1.287889
H       2.458636   -0.501929    3.024273
H       1.259261    0.763030    2.954127
H       0.492768   -1.969703    2.853215
H      -1.018487   -2.824998    0.109264
H      -2.234391   -1.633668    0.605730
H      -0.264995   -1.298894   -1.724563
H      -1.700732   -0.297390   -1.411281
