20

C       0.369877    1.700897   -0.026697
C       0.182512    0.189269    0.060916
C       0.640804   -0.750475   -1.107176
C       1.945641   -0.359798   -1.851392
C       2.790582   -1.193753   -0.842637
C       1.491124   -1.603348   -0.082596
C       1.069370   -0.630166    0.992150
N       1.369397   -0.618349    2.223060
O       0.746773    0.460809    2.888624
H       1.414181    1.973024   -0.205577
H      -0.232642    2.117956   -0.841014
H       0.064006    2.172319    0.909974
H      -0.866837   -0.024105    0.305004
H      -0.160210   -1.177406   -1.710695
H       1.985774   -0.752910   -2.870014
H       2.167123    0.708966   -1.899705
H       3.296496   -2.045697   -1.302662
H       3.520230   -0.645111   -0.243017
H       1.339125   -2.664460    0.117844
H       1.056403    0.343767    3.792834
