25

C      -0.107855    1.587633   -0.180932
C       0.003915    0.065115   -0.122597
C       0.967927   -0.553471   -1.153129
C       1.221469   -1.959767   -0.599466
C       1.385631   -1.739914    0.923981
C       0.507445   -0.487006    1.238318
C       1.053362   -2.955256    1.759598
C       2.076797   -4.039173    1.988792
C       1.656975   -3.142883    3.129063
H       0.866134    2.057941    0.000224
H      -0.464252    1.926122   -1.160129
H      -0.804269    1.967515    0.574600
H      -0.991615   -0.358626   -0.314130
H       0.563330   -0.549291   -2.170361
H       1.906434    0.018119   -1.174584
H       0.345708   -2.594767   -0.789179
H       2.084193   -2.462306   -1.046389
H       2.435682   -1.482030    1.115308
H       1.097339    0.272009    1.763886
H      -0.327381   -0.740843    1.899495
H       0.024731   -3.294683    1.648895
H       1.747848   -5.072525    1.997076
H       3.068021   -3.894465    1.570865
H       2.367374   -2.398890    3.475109
H       1.040666   -3.564547    3.915517
