20

C       0.053961    1.485375    0.017482
C       0.028209    0.029265    0.020439
C       0.004989   -1.176294    0.029538
C       0.019362   -2.616858    0.010421
C       1.180474   -3.228151   -0.761970
C      -0.474709   -3.350208    1.253517
C      -1.313297   -3.365125    0.005376
C      -2.637971   -2.641729   -0.053518
H       0.977323    1.863556   -0.435667
H      -0.785323    1.901968   -0.551089
H      -0.002269    1.890276    1.034408
H       2.139946   -2.920989   -0.333437
H       1.130592   -4.321292   -0.735532
H       1.163405   -2.911188   -1.809727
H       0.056176   -4.250907    1.544271
H      -0.816378   -2.740613    2.082826
H      -1.283905   -4.292235   -0.562577
H      -2.592812   -1.693495    0.488590
H      -2.922086   -2.417899   -1.087575
H      -3.433812   -3.251012    0.389177
