18

C      -0.412340    1.383617    0.013518
N      -0.126101   -0.041638    0.044746
C       0.593149   -0.599645   -0.831462
O       0.881996   -1.926139   -0.803525
C       0.321445   -2.678487    0.249883
C      -0.933123   -3.452610   -0.023673
C       0.405627   -4.159117    0.085916
C       1.277896    0.002502   -2.033077
O       1.209381    1.166888   -2.333834
H       0.498031    1.992234    0.045638
H      -0.953530    1.674379   -0.893687
H      -1.029555    1.628005    0.881803
H       0.456035   -2.218796    1.221797
H      -1.655182   -3.555799    0.778170
H      -1.361341   -3.360171   -1.015080
H       0.847952   -4.525401   -0.833519
H       0.615759   -4.760380    0.963004
H       1.858394   -0.732867   -2.627513
