25

C      -1.110515    1.280136   -0.428720
C      -0.338342   -0.023763   -0.178369
C       0.617257   -0.384754   -1.288113
C       0.153688   -1.149816   -2.508797
C       0.303810   -0.792699   -3.975298
C       1.221265   -1.759183   -1.638989
C       2.591118   -1.118851   -1.895947
C       2.010283    0.265583   -1.452403
C       2.221233    1.512543   -2.308274
H      -0.431225    2.133338   -0.525742
H      -1.697549    1.217884   -1.351013
H      -1.798289    1.496538    0.395146
H       0.216255    0.059470    0.766781
H      -1.053299   -0.845213   -0.039900
H      -0.816010   -1.604027   -2.303376
H       1.322900   -0.505935   -4.240988
H       0.037758   -1.653601   -4.599478
H      -0.357986    0.034615   -4.255113
H       1.070761   -2.706390   -1.132154
H       3.374900   -1.481742   -1.227468
H       2.966722   -1.184765   -2.922786
H       2.388285    0.479428   -0.445242
H       1.857265    1.388158   -3.330655
H       1.703738    2.376954   -1.877727
H       3.286987    1.763817   -2.362839
