21

C       0.017826    1.645754    0.073790
C       0.015464    0.112676    0.061191
C       0.709196   -0.509662   -1.181409
C       1.476709   -1.755255   -0.683436
C       0.979601   -3.167784   -1.117707
O       2.224813   -3.466628   -1.773217
C       2.762355   -2.172788   -1.443695
C       1.568738   -1.515457    0.798786
C       0.778826   -0.522731    1.203116
H       1.041858    2.034316    0.046179
H      -0.519011    2.046575   -0.792467
H      -0.465654    2.036903    0.975352
H      -1.032849   -0.219512    0.109727
H       0.010054   -0.741477   -1.989985
H       1.432162    0.211839   -1.581490
H       0.766241   -3.867284   -0.299328
H       0.132417   -3.168199   -1.817272
H       2.982157   -1.576585   -2.339970
H       3.672501   -2.246236   -0.833838
H       2.185582   -2.135761    1.441480
H       0.654298   -0.200828    2.232246
