14

N       0.136350    1.337296    0.157446
C      -0.033027   -0.025173    0.048500
C      -1.186869   -0.718030    0.015051
C      -1.208237   -2.173117   -0.005403
N      -2.327545   -2.810161   -0.027276
C       0.130855   -2.773634   -0.007901
C       1.205817   -1.985485    0.009309
F       2.450575   -2.408095   -0.000712
O       1.196052   -0.640725    0.040391
H       0.985264    1.687721   -0.263797
H      -0.679057    1.880297   -0.082846
H      -2.132603   -0.191784    0.010562
H      -2.159664   -3.817888   -0.044227
H       0.264170   -3.847329   -0.029736
