21

C       3.100939    0.663550    0.599114
C       1.797345   -0.132610    0.469564
C       1.580439   -0.672404   -0.931161
C       2.298224   -1.927366   -1.474014
C       3.175030   -2.768215   -0.639030
O       4.114536   -3.398355   -1.068815
C       0.765923   -1.867242   -1.264539
C       0.074573   -2.722936   -0.226716
O       0.023361   -1.714845   -2.442637
H       3.972506    0.034591    0.390464
H       3.122779    1.501753   -0.105454
H       3.213162    1.071128    1.608151
H       1.788024   -0.939541    1.209017
H       0.946386    0.513454    0.720628
H       1.512900    0.103390   -1.690037
H       2.608283   -1.880599   -2.512506
H       2.924820   -2.806327    0.444668
H       0.636280   -2.796207    0.706247
H      -0.911591   -2.303204   -0.004998
H      -0.068109   -3.742498   -0.604214
H      -0.112026   -2.589163   -2.826344
