16

N      -0.053372   -1.161751   -0.116290
C      -0.042778   -0.007525   -0.056405
C      -0.003942    1.449992    0.024587
C       1.439279    2.007173    0.029753
C       1.440887    3.503094    0.052898
C       2.053637    4.351171    0.939204
N       1.747265    5.622355    0.503899
C       0.970201    5.491413   -0.606460
N       0.765509    4.230626   -0.906493
H      -0.546768    1.875689   -0.824988
H      -0.532893    1.767056    0.930028
H       1.985570    1.615800    0.892822
H       1.953479    1.642588   -0.866681
H       2.664675    4.176717    1.809144
H       2.043443    6.484351    0.929961
H       0.587760    6.343899   -1.147719
