21

C      -0.116036    1.586455   -0.036055
C       0.027330    0.063704   -0.024810
C      -1.328169   -0.600858    0.233456
C       0.731854   -0.586778   -1.226772
C       2.238880   -0.462819   -1.094738
O       2.794604    0.560122   -0.293651
C       2.355402    0.309119    1.050663
C       1.135612   -0.594212    0.892540
C       1.540212   -1.505340   -0.300372
H       0.829106    2.078419   -0.272329
H      -0.849339    1.887755   -0.793284
H      -0.476406    1.959761    0.930222
H      -2.047317   -0.339765   -0.551353
H      -1.240735   -1.691719    0.259020
H      -1.747294   -0.269954    1.190793
H       0.261985   -0.827359   -2.176070
H       2.852527   -0.712205   -1.952258
H       3.152802   -0.189500    1.622743
H       2.133657    1.270533    1.524138
H       0.784509   -1.052350    1.817652
H       1.718552   -2.572042   -0.309608
