21

C      -0.034762    1.521203    0.031661
C      -0.000310    0.024762   -0.035428
C      -0.002804   -0.706016   -1.157632
C       0.034532   -2.181234   -1.026501
C      -0.682608   -2.811399    0.170168
C      -1.144360   -1.803168    1.208035
C       0.041687   -0.795978    1.237525
C       1.272407   -1.745774    1.165277
C       0.822608   -2.775658    0.143546
H       0.843461    1.918940    0.557606
H      -0.062145    1.968084   -0.966339
H      -0.912792    1.877194    0.587039
H      -0.030911   -0.256778   -2.146195
H       0.032143   -2.761987   -1.941718
H      -1.243013   -3.725645    0.013310
H      -2.091757   -1.316249    0.955520
H      -1.258145   -2.292088    2.182583
H       0.042594   -0.168150    2.131258
H       2.186111   -1.214662    0.879831
H       1.443638   -2.227920    2.134784
H       1.419876   -3.662412   -0.033781
