15

C       0.077727    1.485956    0.077273
C       0.002346   -0.009851    0.043130
C      -0.111102   -0.705791   -1.100124
O      -0.184140   -2.057568   -1.202321
N      -0.142390   -2.839518   -0.053243
C      -0.034315   -2.227399    1.071810
C       0.049839   -0.783521    1.268949
N       0.158413   -0.184245    2.409691
O       0.187575   -1.100683    3.472464
H       1.007323    1.813244    0.554988
H       0.027829    1.909292   -0.928951
H      -0.740161    1.898479    0.677559
H      -0.157734   -0.256621   -2.085508
H      -0.006686   -2.886242    1.931416
H       0.269027   -0.521592    4.237055
