21

C       0.471971    1.494250   -0.252947
C       0.084837    0.064518    0.074632
O       0.592989   -0.881516   -0.900231
C       1.303991   -1.625892    0.127795
C       2.789934   -1.415946    0.129613
C       3.184547   -0.577122    1.093185
C       4.582798   -0.133319    1.387953
C       2.016184   -0.082428    1.929314
C       0.779500   -0.691525    1.245405
H       1.557531    1.611225   -0.310584
H       0.052393    1.771554   -1.225197
H       0.077151    2.188979    0.496831
H      -1.010023   -0.013233    0.130516
H       0.997913   -2.678620    0.118846
H       3.450829   -1.891620   -0.587230
H       5.306053   -0.588120    0.706224
H       4.674520    0.957367    1.306301
H       4.870439   -0.391079    2.415334
H       2.109883   -0.419928    2.970428
H       1.987727    1.014097    1.973954
H       0.073299   -1.125690    1.953167
