17

O       0.011898    1.370405   -0.078911
C       0.007230   -0.017736    0.031429
C      -0.381300   -0.902454   -1.135457
C      -1.287225   -0.772970    0.068468
O      -1.269317   -1.777292    1.052733
C      -0.038496   -1.741420    1.760834
C       1.043599   -2.740156    1.310158
O       1.802560   -1.687979    0.665677
C       0.868172   -0.673140    1.104707
H       0.749137    1.621692   -0.646535
H      -0.710835   -0.387663   -2.032008
H       0.181804   -1.814503   -1.294010
H      -2.247957   -0.280714   -0.029740
H      -0.241703   -1.693231    2.833199
H       1.613076   -3.205100    2.123654
H       0.700963   -3.508035    0.608331
H       1.344015    0.084026    1.734655
