24

C      -0.059738    1.474711   -0.070232
C      -0.085441   -0.058479   -0.056722
C       0.827664   -0.632288    1.033412
C      -1.519723   -0.561431    0.101719
O      -1.535708   -1.969251   -0.020112
C      -2.816586   -2.534085    0.154636
C      -2.708361   -4.031267    0.064040
C      -3.841372   -4.812333   -0.491223
N      -2.583132   -4.689181   -1.243913
H       0.960355    1.845131   -0.210739
H      -0.678343    1.883323   -0.876528
H      -0.431002    1.884463    0.876823
H       0.269948   -0.422013   -1.030177
H       0.778062   -1.723301    1.045376
H       1.868258   -0.333620    0.871024
H       0.527846   -0.267563    2.023817
H      -1.921085   -0.258805    1.086153
H      -2.170785   -0.106667   -0.665167
H      -3.234649   -2.242203    1.134109
H      -3.513476   -2.160515   -0.618114
H      -2.089601   -4.482705    0.836476
H      -4.053940   -5.807015   -0.110489
H      -4.716420   -4.266110   -0.836079
H      -2.683843   -3.998325   -1.984368
