18

C      -0.030607    1.587668    0.006544
C       1.507491    1.647684    0.007021
N       1.741484    1.039980    1.330991
C       1.116584   -0.291311    1.096357
C       2.192239   -1.169916    0.432301
O       2.837152   -0.355849   -0.563425
C       1.878976    0.547819   -1.082607
O       0.660340   -0.161773   -1.269254
C       0.025810    0.053273    0.008249
H      -0.445445    2.055455    0.899460
H      -0.518608    1.952013   -0.898079
H       1.999404    2.612014   -0.115837
H       2.738336    0.918382    1.489642
H       0.710819   -0.732335    2.009909
H       2.964576   -1.465021    1.150149
H       1.769337   -2.074034   -0.021977
H       2.255825    0.917482   -2.036747
H      -0.894218   -0.526925    0.052668
