18

C      -0.032280    1.529566    0.004478
C       0.006904    0.019354    0.029491
O      -1.156166   -0.600263   -0.468593
C       1.323532   -0.713446   -0.176114
C       0.633201   -0.696266    1.182991
O       1.178101    0.109769    2.188073
C       0.030819   -1.966620    1.728446
O       1.078126   -2.611402    2.460290
H       0.840799    1.952245    0.504150
H      -0.053689    1.895266   -1.029363
H      -0.931080    1.891459    0.513300
H      -1.175550   -0.457738   -1.421593
H       1.300860   -1.637819   -0.743307
H       2.224788   -0.118749   -0.276574
H       1.711405   -0.489968    2.726345
H      -0.807527   -1.714034    2.393126
H      -0.348254   -2.598341    0.918261
H       0.680419   -3.256047    3.051613
