20

O      -0.260015    0.022160   -0.035150
C      -0.089117    1.223528   -0.051336
N       1.118378    1.857005   -0.051929
C       1.211525    3.304927   -0.054956
C       1.697766    3.912867    1.267240
C       3.156897    3.590652    1.633044
C       3.460236    2.145957    1.961717
C       3.115283    1.071558    1.252869
C       2.341117    1.061704   -0.048847
H      -0.927914    1.947606   -0.076664
H       1.880124    3.616588   -0.871020
H       0.217910    3.700444   -0.291321
H       1.592652    5.002089    1.187796
H       1.034017    3.583623    2.074781
H       3.806717    3.918200    0.806362
H       3.440439    4.211628    2.488899
H       4.040959    1.984182    2.867196
H       3.434126    0.094302    1.606503
H       2.035018    0.043208   -0.291532
H       2.985530    1.421041   -0.866012
