19

C       0.063563    1.566629    0.081789
C      -0.029776    0.042328   -0.023771
N       0.636618   -0.499092   -1.209465
C       2.088992   -0.702278   -1.170238
C       2.476325   -2.116449   -0.731458
C      -0.006689   -0.840658   -2.352822
O       0.519971   -1.306841   -3.346393
C      -1.466842   -0.601635   -2.350998
N      -2.608609   -0.437854   -2.426287
H       1.103334    1.907218    0.095782
H      -0.442358    2.043795   -0.762188
H      -0.414853    1.906932    1.005072
H       0.423705   -0.431642    0.853707
H      -1.077133   -0.267234   -0.040552
H       2.477893   -0.502407   -2.170842
H       2.506535    0.044178   -0.488595
H       2.083131   -2.350721    0.262857
H       2.090867   -2.851612   -1.441875
H       3.565812   -2.211266   -0.695189
