13

C      -0.046512    1.437200    0.021716
N      -0.009342   -0.010688    0.028911
N      -0.006045   -0.733519   -1.082815
N       0.031484   -1.985123   -0.702838
C       0.049982   -1.975393    0.654683
C       0.092984   -3.202649    1.497635
N       0.024786   -0.736667    1.141010
H       0.841773    1.833678    0.518168
H      -0.069484    1.755548   -1.019699
H      -0.939434    1.788043    0.543536
H       0.985670   -3.793878    1.273599
H       0.103082   -2.932160    2.554486
H      -0.776973   -3.836325    1.301714
