19

C      -0.342598    1.279344   -1.267851
C       0.238650   -0.051919   -0.834611
O       1.622268   -0.213825   -1.231173
C       2.040295   -0.583498    0.112128
C       3.218649    0.231501    0.602533
C       0.636639   -0.270160    0.627247
C       0.182836    0.452218    1.832568
N      -0.059920   -0.999204    1.671937
H       0.240224    2.109847   -0.860132
H      -0.336283    1.354932   -2.359800
H      -1.380766    1.377526   -0.930456
H      -0.372718   -0.879923   -1.228316
H       2.264377   -1.658447    0.163988
H       2.986493    1.300419    0.591408
H       3.486027   -0.061638    1.623564
H       4.089301    0.060178   -0.038100
H       0.887996    0.710967    2.617888
H      -0.654320    1.139135    1.733680
H      -1.027326   -1.169239    1.404245
