19

C       0.205563    1.314284    0.177245
O      -0.190228   -0.003845   -0.163076
C       0.530469   -0.543163   -1.222489
C       0.206416   -0.087745   -2.651988
C       0.304524   -1.359430   -3.466699
C       0.575123   -2.425485   -2.703109
C       0.757405   -2.053034   -1.273386
C       1.911581   -1.090221   -0.984582
O       2.977782   -0.890071   -1.857422
H       1.274584    1.363321    0.426412
H       0.005961    2.024789   -0.637524
H      -0.381320    1.607421    1.050720
H      -0.800555    0.346913   -2.694205
H       0.906098    0.679375   -3.007488
H       0.163178   -1.376062   -4.541531
H       0.680438   -3.442954   -3.062368
H       0.428722   -2.709533   -0.475760
H       2.245483   -1.079357    0.048678
H       2.724994   -1.260755   -2.713472
