19

C       0.318605    1.607041    0.269426
O       1.475804    2.007402   -0.470204
C       2.084478    0.861856   -1.058319
C       0.921642   -0.122736   -1.257289
C       0.106434    0.095409    0.024740
O       0.509360   -0.696061    1.142181
C       1.861752   -1.060960    1.243935
O       2.761813    0.009334    1.158811
C       3.201177    0.328015   -0.153987
H       0.459007    1.794653    1.338397
H      -0.537261    2.193630   -0.088242
H       2.533841    1.173078   -2.008992
H       0.322449    0.193621   -2.115954
H       1.220707   -1.160034   -1.418844
H      -0.952152   -0.138542   -0.108722
H       1.959429   -1.487241    2.245662
H       2.125025   -1.826901    0.493819
H       3.676497   -0.547802   -0.626804
H       3.959871    1.104725   -0.026516
