21

C      -0.165922    1.520210   -0.261045
C       0.030546    0.050284    0.128144
C      -1.281904   -0.700918    0.211301
C      -1.927408   -1.409935   -0.958669
O      -0.932704   -2.008561   -1.798336
C      -0.489185   -2.875483   -0.719345
C      -1.455940   -2.197610    0.256418
O      -2.100654   -2.789171    1.314937
C      -2.936252   -3.885506    0.975160
H       0.792312    2.045793   -0.316280
H      -0.652342    1.604668   -1.238314
H      -0.792330    2.044981    0.468984
H       0.675967   -0.434268   -0.611202
H       0.548399   -0.012228    1.093534
H      -2.038148   -0.235408    0.843802
H      -2.890404   -1.179415   -1.398929
H      -0.741595   -3.917550   -0.944423
H       0.584441   -2.790208   -0.519067
H      -3.459028   -4.175377    1.889057
H      -3.670925   -3.604302    0.208807
H      -2.360958   -4.746897    0.611347
