18

C      -0.490839    1.397199    0.141315
C       0.374613    0.144482   -0.076495
C       0.881389   -0.450604    1.203536
N       2.155697   -0.294001    1.567064
N       2.264926   -0.914324    2.760018
C       3.546032   -0.961463    3.427836
C       1.092432   -1.463767    3.159985
C       0.165648   -1.185162    2.178743
H       0.080895    2.178719    0.650899
H      -0.843824    1.799380   -0.813718
H      -1.367408    1.170788    0.756848
H      -0.208090   -0.606851   -0.623386
H       1.237672    0.395685   -0.700557
H       3.943797    0.049693    3.545359
H       3.416082   -1.413910    4.412524
H       4.262042   -1.554829    2.851089
H       1.014071   -2.002449    4.091646
H      -0.874444   -1.469505    2.166675
