25

C       0.242254    1.686287    0.216561
C       0.040945    0.163926    0.304835
C       0.612349   -0.364220    1.627924
C      -1.454203   -0.188277    0.102891
C      -1.908822    0.285716   -1.267017
O      -2.967187    0.810999   -1.504879
C      -1.815643   -1.697453    0.282514
C      -3.336951   -1.908190    0.290175
C      -1.140067   -2.624105   -0.741597
H       1.302487    1.945372    0.298850
H      -0.127544    2.098588   -0.728181
H      -0.290894    2.196457    1.027328
H       0.611209   -0.293987   -0.515733
H       0.026023   -0.004186    2.481769
H       0.633075   -1.456223    1.671424
H       1.640193   -0.012237    1.763305
H      -2.050003    0.371051    0.835915
H      -1.178790    0.092833   -2.089551
H      -1.448441   -1.977967    1.276277
H      -3.790638   -1.636568   -0.667894
H      -3.573865   -2.958531    0.488874
H      -3.818298   -1.301341    1.063582
H      -1.501843   -2.437624   -1.758820
H      -0.051472   -2.514180   -0.747894
H      -1.364250   -3.669459   -0.506504
