23

C      -0.181154    1.335502    0.020260
O       0.205024   -0.020846   -0.013779
C       0.819498   -0.533532    1.164347
C       2.172220    0.137048    1.378795
C      -0.189647   -0.723146    2.358703
C      -0.788825   -1.896930    1.529244
C       0.699697   -2.093308    1.109673
C       1.329656   -2.538642    2.441213
C       0.660151   -1.486360    3.393709
H       0.677985    2.019909    0.058506
H      -0.730517    1.527898   -0.905150
H      -0.840609    1.561738    0.870217
H       2.055900    1.187630    1.664168
H       2.762524   -0.344383    2.159052
H       2.745825    0.103613    0.446883
H      -0.801986    0.099703    2.730457
H      -1.261263   -2.710077    2.088001
H      -1.422892   -1.569608    0.709700
H       0.979699   -2.629739    0.202522
H       1.049894   -3.565505    2.691990
H       2.421437   -2.486735    2.444588
H       1.387022   -0.850985    3.906673
H       0.034690   -1.954136    4.159245
