18

C       0.035953    1.540441   -0.159926
C       0.019364    0.042122    0.048767
O       0.298596   -0.510403   -1.253922
C       0.332917   -1.855374   -1.303808
N       0.142763   -2.626265   -0.317238
C      -0.123150   -1.910959    0.906536
C       0.753220   -0.650096    1.241104
C      -0.411891   -0.193261    2.154184
C      -1.102946   -0.683181    0.857145
H       1.012146    1.850298   -0.545066
H      -0.717949    1.819865   -0.902121
H      -0.163478    2.090845    0.759561
H       0.546857   -2.218834   -2.305929
H      -0.282529   -2.600877    1.736321
H       1.823321   -0.638580    1.448638
H      -0.582896   -0.817031    3.034512
H      -0.483038    0.863989    2.406907
H      -2.167316   -0.709781    0.623193
