13

C      -0.095131    1.454555    0.036501
C      -0.018247    0.003910    0.015653
C       0.042074   -1.201366   -0.000787
C       0.135409   -2.599790   -0.025964
C       1.141316   -3.484150   -0.289007
N       0.670037   -4.778691   -0.166760
C      -0.574172   -4.629695    0.158050
O      -0.986461   -3.350940    0.266396
H       0.599940    1.879958    0.768953
H       0.148069    1.880692   -0.943217
H      -1.104502    1.785833    0.303046
H       2.163002   -3.267674   -0.555531
H      -1.311229   -5.393793    0.349970
