14

O      -0.691753    0.661439    0.512434
C       0.152810    0.941045   -0.291113
C       1.356649    1.836517    0.011842
O       2.531830    1.093269   -0.261680
C       3.445154    1.978173   -0.877636
C       3.214417    2.248640   -2.347520
C       2.658680    3.173620   -1.287996
O       1.325034    2.928445   -0.891061
H       0.143881    0.575136   -1.340417
H       1.330167    2.178018    1.058140
H       4.428082    1.999659   -0.422217
H       4.057524    2.602871   -2.931975
H       2.512868    1.607765   -2.869079
H       2.979028    4.202943   -1.178910
