17

C       0.003956    1.471737    0.110711
C       0.075601   -0.017921    0.099997
C      -0.712507   -0.970621    0.967432
C       0.798708   -1.058473    0.916628
C       1.246734   -1.640827   -0.415274
O       0.430353   -0.673129   -1.128980
O       1.639810   -0.904206    2.017459
C       1.476951   -1.773817    3.049059
O       2.165913   -1.741254    4.020544
H       0.926741    1.905433   -0.285039
H      -0.832076    1.819393   -0.505575
H      -0.147698    1.839072    1.129264
H      -1.098395   -0.526233    1.880232
H      -1.334449   -1.743202    0.523061
H       2.311393   -1.475976   -0.613045
H       0.972535   -2.676307   -0.646690
H       0.648049   -2.483468    2.876685
