16

O       0.025096    1.328545    0.141076
N       0.039340   -0.047156    0.089061
C      -1.115733   -0.605321    0.029579
C      -1.129697   -2.116073   -0.031213
C      -2.196626   -2.603886   -1.013639
O      -3.467468   -2.104207   -0.635436
C      -3.554437   -0.701630   -0.762495
C      -2.447432    0.095220   -0.054095
O      -2.658105    1.219294    0.334945
H       0.965807    1.541530    0.126365
H      -0.133570   -2.479388   -0.298567
H      -1.379808   -2.518909    0.958860
H      -1.949222   -2.294066   -2.042743
H      -2.274199   -3.693957   -0.995092
H      -3.523291   -0.399753   -1.826353
H      -4.517408   -0.387743   -0.354345
