17

C       0.092016    1.300751    0.104027
O      -0.172393   -0.062184   -0.150367
C       0.567921   -0.600645   -1.216342
C       2.052256   -0.987573   -0.860950
C       1.922073   -2.509791   -1.016178
O       1.141047   -2.621321   -2.256506
C       0.033759   -2.014483   -1.520232
C       0.574607   -2.831502   -0.321443
O       0.163696   -3.547579    0.532365
H       1.136839    1.470978    0.402437
H      -0.121902    1.923439   -0.777929
H      -0.561931    1.607535    0.923070
H       0.513110    0.048864   -2.100288
H       2.779900   -0.582866   -1.567375
H       2.317828   -0.676394    0.152967
H       2.800366   -3.150233   -0.973481
H      -0.947275   -2.136757   -1.972059
