21

C      -0.383617    1.452199    0.016287
C       0.059802   -0.017708   -0.015281
C       1.065061   -0.255098   -1.150391
C       0.650341   -0.480496    1.328675
C      -0.349075   -0.469404    2.491591
N       0.220526   -1.001215    3.720442
C       0.396239   -0.258795    4.845896
O       0.077559    0.903907    4.980133
H       0.464307    2.110057    0.241562
H      -0.790074    1.756298   -0.953825
H      -1.156019    1.637319    0.768284
H      -0.827967   -0.635022   -0.219038
H       1.976121    0.335247   -0.995878
H       1.358058   -1.308568   -1.212763
H       0.643781    0.034344   -2.118599
H       1.040571   -1.501026    1.209491
H       1.510063    0.149441    1.592567
H      -0.670239    0.545620    2.731396
H      -1.243497   -1.046974    2.221173
H       0.552317   -1.952925    3.728279
H       0.872635   -0.850246    5.653607
