17

N      -0.019906    0.688794    1.037251
C       0.002493   -0.266403    0.211446
N       0.958966   -0.938938   -0.553982
C       0.068480   -2.057489   -0.901448
C       0.182124   -3.303431   -0.022267
O      -0.003551   -2.932627    1.333891
C      -1.309564   -2.491642    1.633236
O      -1.959418   -1.865083    0.543729
C      -1.105680   -1.188042   -0.334786
H       0.916058    1.055831    1.221005
H       1.941895   -1.014746   -0.328017
H       0.058486   -2.307894   -1.966699
H      -0.560692   -4.048047   -0.347571
H       1.174080   -3.761427   -0.084624
H      -1.960966   -3.334250    1.906357
H      -1.201178   -1.800293    2.477506
H      -1.737734   -0.715009   -1.086845
