13

O      -0.053083    1.312741    0.127644
C       0.059692   -0.017605   -0.012741
N       1.182522   -0.609127    0.174259
N       1.147764   -1.983897   -0.006047
C       0.081993   -2.758971   -0.350731
O       0.137783   -3.966619   -0.489012
C      -1.209362   -1.999254   -0.555913
N      -2.310092   -2.537176   -0.879142
N      -1.109906   -0.625733   -0.360887
H       0.821342    1.644471    0.372438
H       2.033239   -2.444712    0.142179
H      -2.151145   -3.543287   -0.968094
H      -1.944702   -0.069115   -0.485315
