17

C       0.019275    1.558738    0.027546
C       0.006326    0.044318    0.050834
C      -1.343990   -0.663554   -0.017599
C      -1.327282   -1.789483    0.716087
C      -0.066282   -1.905696    1.456642
C       0.704316   -0.668961    1.239338
N       1.338697   -1.853196    0.653345
C       1.236659   -1.626789   -0.731658
N       0.645249   -0.572341   -1.154420
H       1.047315    1.934531    0.032234
H      -0.470771    1.931883   -0.875923
H      -0.503435    1.965862    0.898984
H      -2.107595   -0.372162   -0.728646
H      -2.093737   -2.554525    0.723612
H       0.047308   -2.536655    2.328041
H       1.243381   -0.132190    2.015059
H       1.672930   -2.363048   -1.400635
