23

C      -0.250137    1.543626    0.023215
C       0.007476    0.024266   -0.010402
C       0.756989   -0.423306   -1.282269
C       2.272927   -0.226319   -1.157370
C       2.841775   -1.049859    0.007115
C       4.293000   -0.663160    0.301983
O       4.812459   -1.578543    1.256724
C       1.980267   -0.915582    1.239365
C       0.738895   -0.430968    1.229746
H       0.687535    2.106944   -0.023742
H      -0.876465    1.852120   -0.820827
H      -0.761521    1.835834    0.946426
H      -0.979002   -0.461352   -0.012067
H       0.555266   -1.487146   -1.459645
H       0.371798    0.118877   -2.153408
H       2.771037   -0.502888   -2.093625
H       2.494726    0.836223   -0.988723
H       2.868372   -2.111368   -0.285591
H       4.876302   -0.693983   -0.632755
H       4.326971    0.370750    0.681567
H       5.684995   -1.275204    1.522608
H       2.436311   -1.238642    2.170919
H       0.193423   -0.342103    2.168015
