19

C       0.194579    1.534164    0.245857
C       0.174836    0.036914    0.044398
O       0.965006   -0.327093   -1.077568
C       1.578351   -1.577714   -0.792988
C       1.153033   -1.894869    0.660218
C       2.255464   -2.460795    1.550957
C       1.781173   -2.715033    2.968941
O       1.907333   -3.764199    3.546388
O       0.747200   -0.623550    1.152232
H       1.221343    1.869777    0.409426
H      -0.207969    2.030786   -0.640233
H      -0.417413    1.804978    1.109941
H      -0.857296   -0.332400   -0.106809
H       1.239533   -2.348355   -1.495666
H       2.666379   -1.471797   -0.885216
H       0.289649   -2.579658    0.651854
H       2.644116   -3.396998    1.140173
H       3.069899   -1.724678    1.589359
H       1.295598   -1.841489    3.454173
