9

O      -0.084246    0.002923    0.000531
C      -0.025500    1.191443    0.008915
N       1.202061    1.919966    0.001674
N       1.216149    3.259688    0.011178
C       2.508318    3.503929    0.000100
N       3.261191    2.361552   -0.016046
N       2.430106    1.369045   -0.015166
H      -0.869525    1.897608    0.022779
H       2.929972    4.495858    0.003144
