19

C      -0.121716    1.534674    0.003703
C       0.024162    0.010455    0.037150
C       0.786967   -0.471200   -1.195328
O       1.100033   -1.881484   -1.209822
C       1.376580   -2.544191   -0.074496
O       1.999291   -3.576160   -0.105093
C       0.799006   -2.019108    1.243039
O       1.525054   -2.544476    2.320848
C       0.746324   -0.495104    1.289805
H       0.857082    2.025968    0.038079
H      -0.634164    1.868952   -0.904455
H      -0.700794    1.885283    0.862863
H      -0.979303   -0.436699    0.012152
H       0.216974   -0.300623   -2.111841
H       1.737755    0.071245   -1.282579
H      -0.243393   -2.393453    1.255492
H       1.951223   -3.344882    1.978788
H       1.768519   -0.097396    1.331950
H       0.237405   -0.173404    2.203776
