16

C       0.086076    1.399050   -0.050001
N       0.110458   -0.039170   -0.004501
N       0.207354   -0.796045   -1.173253
C       0.199833   -2.014387   -0.737992
O       0.273625   -3.120385   -1.486367
N       0.106057   -2.120879    0.616572
C       0.071781   -3.311123    1.438243
C       0.044939   -0.806731    1.128543
O      -0.043636   -0.477743    2.295527
H       1.003230    1.791282   -0.501125
H      -0.773388    1.757279   -0.625783
H       0.007070    1.749044    0.980520
H       0.334540   -2.836916   -2.408427
H      -0.791100   -3.935694    1.190990
H       0.984808   -3.900444    1.316198
H      -0.007887   -2.970006    2.472095
