18

C      -0.010385    1.470228   -0.065916
C      -0.023799    0.016548   -0.013156
C      -0.037812   -1.189507    0.026663
C      -0.024988   -2.604731    0.102790
N      -0.313873   -3.477086   -1.083289
C      -1.140071   -3.594193    0.132959
C      -0.387353   -4.454283    1.185815
C       0.978674   -4.876343    0.709094
C       0.760683   -3.457418    1.155777
H       0.770082    1.878622    0.585767
H       0.187006    1.831580   -1.081535
H      -0.967300    1.894894    0.258419
H      -0.827734   -2.894355   -1.743794
H      -2.207382   -3.416049    0.111532
H      -0.876526   -4.888634    2.047058
H       1.529211   -5.484950    1.420161
H       1.152417   -5.108206   -0.333439
H       1.280254   -2.999592    1.986387
