18

O      -0.695795    1.133574    0.936015
C      -0.015549    0.166861    0.136527
C       0.895247   -0.764866    0.973915
C       0.019080   -1.930889    1.402229
C      -1.342496   -1.637580    1.961670
C      -1.200835   -1.947807    0.477804
C      -1.085180   -0.757506   -0.477330
C      -1.737110   -3.177036   -0.029217
N      -2.170909   -4.164166   -0.450382
H      -0.033069    1.688053    1.360530
H       0.557275    0.677371   -0.648694
H       1.719835   -1.135064    0.353923
H       1.340466   -0.227453    1.819319
H       0.493610   -2.865282    1.678118
H      -1.800445   -2.408820    2.570013
H      -1.597111   -0.617976    2.222999
H      -2.025364   -0.216445   -0.609245
H      -0.758279   -1.113772   -1.458713
