15

C       0.029420    1.512869    0.032381
C      -0.383107    0.058580   -0.077866
O      -1.336134   -0.386047    0.519476
C       0.475858   -0.798458   -1.003775
C       0.241024   -2.269838   -0.922996
C      -0.774563   -3.023931   -0.423005
O      -0.490247   -4.310436   -0.613687
N       0.774626   -4.351954   -1.268975
N       1.161841   -3.166488   -1.429507
H       0.976673    1.584594    0.579901
H       0.199619    1.951360   -0.956463
H      -0.736860    2.075352    0.566269
H       0.293575   -0.434308   -2.026491
H       1.535297   -0.583470   -0.820468
H      -1.694792   -2.775105    0.073309
