16

N       0.039810    1.505491    0.185731
C       0.004435    0.073942   -0.005068
C      -1.409910   -0.590296   -0.071801
N      -1.016307   -1.159238   -1.367628
C      -1.730027   -1.990509   -2.252132
N      -1.018128   -2.277510   -3.372595
O      -2.846531   -2.380517   -1.987348
C       0.225921   -0.549258   -1.414592
O       1.072094   -0.537681   -2.275472
H       1.000039    1.835044    0.182183
H      -0.433660    1.982464   -0.576655
H       0.651204   -0.401585    0.737789
H      -1.634588   -1.338506    0.690199
H      -2.232258    0.125543   -0.144974
H      -0.113344   -1.856246   -3.530110
H      -1.466338   -2.828017   -4.083414
