18

C      -0.027399    1.512225   -0.008701
C       0.031717    0.005682    0.013502
C      -0.837824   -0.804832    0.944133
C       0.673374   -0.811966    1.133118
C       1.418356   -1.895043    0.434686
C       1.233389   -1.791835   -0.886805
N       0.445744   -0.672961   -1.208950
C       0.114587   -0.319628   -2.488548
O       0.469181   -0.921263   -3.480470
H       0.895237    1.936946   -0.417030
H      -0.869546    1.885083   -0.601430
H      -0.155160    1.889950    1.009481
H      -1.422069   -0.239091    1.661671
H      -1.308879   -1.707882    0.572503
H       1.088860   -0.333840    2.014016
H       2.007411   -2.654143    0.927626
H       1.571984   -2.416868   -1.698320
H      -0.521154    0.582686   -2.523136
