18

O      -0.106311    0.009756   -0.233456
C       0.010585    1.177734    0.055776
C       1.289871    1.931919    0.044988
C       1.465957    3.138644    1.021819
C       1.750667    4.101805   -0.168713
C       1.575840    2.924057   -1.166519
C       2.809294    2.063434   -1.508629
N       3.698976    2.053541   -0.322707
C       2.541162    1.134282   -0.376846
H      -0.879999    1.787908    0.336235
H       0.545700    3.371153    1.565410
H       2.283222    3.016952    1.732520
H       0.999030    4.884870   -0.291867
H       2.743497    4.552775   -0.170933
H       0.850719    3.021349   -1.974712
H       3.208293    1.868752   -2.496595
H       4.524448    1.510810   -0.572917
H       2.658400    0.061359   -0.301615
