16

C       0.087254    1.455489    0.036258
O       0.040393    0.029353    0.051732
C       0.553640   -0.593674   -1.019744
C       0.654139   -1.944885   -1.190813
C       0.267376   -3.126039   -0.384083
O      -0.859578   -3.837825   -0.890713
O       1.233809   -2.124983   -2.433852
C       1.437648   -0.889654   -2.907072
N       1.058760    0.070051   -2.119265
H       1.118486    1.816325   -0.027370
H      -0.478627    1.860376   -0.808206
H      -0.363292    1.774495    0.976937
H       1.080338   -3.859051   -0.361956
H       0.101027   -2.780257    0.646183
H      -1.586054   -3.209458   -0.962131
H       1.890749   -0.803507   -3.882298
