22

C      -0.195385    1.711261    0.272826
C      -0.152949    0.182039    0.196686
C      -1.527074   -0.485867    0.000932
C      -2.186219   -0.108376   -1.333080
C      -1.415997   -2.030280    0.091246
O      -0.570608   -2.539226   -0.907539
C      -0.886837   -2.508386    1.453208
N      -1.663805   -2.257203    2.534753
O       0.188521   -3.083029    1.525006
H       0.800549    2.115399    0.479506
H      -0.541740    2.161339   -0.662317
H      -0.862582    2.053299    1.072857
H       0.503443   -0.135557   -0.620746
H       0.303922   -0.201861    1.117198
H      -2.188858   -0.156894    0.816871
H      -3.171589   -0.577077   -1.431305
H      -2.324543    0.972175   -1.423248
H      -1.569017   -0.450086   -2.168931
H      -2.427534   -2.451097   -0.040313
H       0.158511   -2.959424   -0.418661
H      -2.575801   -1.844064    2.451338
H      -1.359914   -2.586696    3.436311
