16

O       0.065943   -0.010509    0.165359
C      -0.007034    1.178590    0.001717
N      -1.202337    1.873000    0.007911
C      -1.277815    3.266060    0.012796
C      -0.202944    3.992165   -0.288141
C       1.042060    3.281244   -0.638807
C       1.752115    3.505632   -1.956175
C       2.382542    3.951022   -0.654330
O       1.105479    1.935060   -0.154040
H      -2.004276    1.312182    0.241922
H      -2.241375    3.683371    0.275452
H      -0.223687    5.073064   -0.290252
H       2.167601    2.625089   -2.432718
H       1.350815    4.253290   -2.631293
H       2.421968    5.009941   -0.423136
H       3.214411    3.367951   -0.276987
