13

O      -0.490717    0.251247   -0.998859
C      -0.228958    1.249548   -0.412697
O      -1.028210    1.891926    0.490780
C      -0.340524    3.008530    0.931691
C       0.840928    3.056098    0.323845
C       2.004920    3.986414    0.369237
C       1.792647    5.092814    1.294723
C       1.610728    6.001007    2.058401
O       0.937205    1.965456   -0.524410
H      -0.821208    3.641059    1.654918
H       2.905430    3.423298    0.651173
H       2.199535    4.369761   -0.642052
H       1.461386    6.809468    2.731131
