19

C       0.006722    1.428056   -0.033851
O      -0.005866    0.020872    0.013869
C       0.628565   -0.567755   -1.096503
C       0.578284   -2.054134   -0.981216
C       0.035538   -2.802671   -0.012594
C       0.184723   -4.285319   -0.248486
C       0.945391   -4.380374   -1.585847
C       1.177565   -2.926154   -2.019804
O       1.744523   -2.555820   -3.024102
H       1.033279    1.826867   -0.044642
H      -0.518542    1.810974   -0.922932
H      -0.503911    1.789410    0.861827
H       0.149212   -0.255122   -2.041033
H       1.680196   -0.239761   -1.174625
H      -0.464304   -2.398843    0.859922
H       0.726344   -4.760728    0.578441
H      -0.795415   -4.776335   -0.285966
H       1.909408   -4.889829   -1.497342
H       0.383356   -4.904812   -2.364181
