21

C      -0.014932    1.651319    0.129809
C       0.010849    0.130050    0.002314
C       1.020510   -0.450784   -1.024454
O       1.674757   -1.235333   -0.011749
C       0.895550   -0.618018    1.033437
C      -1.377489   -0.516116   -0.112417
O      -2.138479   -0.378551    1.094909
C      -2.234644   -0.047130   -1.291139
O      -3.452800   -0.759617   -1.329812
H       0.998007    2.039488    0.272404
H      -0.430402    2.132711   -0.761100
H      -0.604206    1.979280    0.994891
H       0.605813   -1.075649   -1.825365
H       1.693221    0.295083   -1.469678
H       1.508099    0.036084    1.668743
H       0.382379   -1.352518    1.662997
H      -1.240766   -1.599151   -0.215810
H      -2.274401    0.562775    1.254826
H      -2.413135    1.039933   -1.212761
H      -1.720241   -0.225005   -2.241941
H      -3.743407   -0.822221   -0.410597
