17

O       0.633729    0.175770    0.761188
C      -0.132319    0.209881   -0.425996
C      -1.490979   -0.431211   -0.281635
C      -2.211085   -0.645306    1.013946
C      -1.899125   -1.856124    0.146551
C      -2.838247   -1.867768   -1.066945
N      -2.369794   -0.503111   -1.451429
C      -1.103037   -2.948920    0.590274
N      -0.475621   -3.858887    0.934945
H       0.293232    0.847952    1.359439
H      -0.275256    1.236694   -0.800638
H       0.440693   -0.327600   -1.187767
H      -1.596409   -0.582349    1.905147
H      -3.247716   -0.338610    1.136391
H      -2.566034   -2.609769   -1.821724
H      -3.904891   -1.961210   -0.833358
H      -3.100747    0.204110   -1.456679
