23

C       0.056024    1.594295    0.075488
C      -0.078591    0.068531    0.030367
C       0.625273   -0.557828   -1.166575
C       2.186216   -0.575740   -1.221508
C       2.141604   -2.028383   -1.789536
C       3.145251   -3.058673   -1.295942
C       0.685841   -2.083560   -1.309788
C       0.030352   -3.108658   -0.493013
O      -0.329625   -2.897316   -1.867030
H       1.107017    1.898286    0.127675
H      -0.377279    2.054890   -0.819205
H      -0.455479    2.013267    0.947487
H       0.327398   -0.365193    0.953753
H      -1.142023   -0.203449    0.002788
H       0.225798   -0.133930   -2.096875
H       2.677207    0.182659   -1.833854
H       2.620976   -0.553170   -0.216308
H       2.143871   -1.996384   -2.885718
H       3.161702   -3.102593   -0.201381
H       2.902233   -4.059147   -1.670583
H       4.157858   -2.815945   -1.635677
H       0.540994   -4.048102   -0.284636
H      -0.727889   -2.824837    0.235613
