17

O       0.139747    1.358531    0.185966
C       0.061823    0.023908   -0.264096
C      -1.347075   -0.525275   -0.074671
C      -1.532827   -2.099796   -0.065912
C      -1.787419   -1.939077    1.431778
C      -1.830394   -2.254183    2.778372
C      -1.749765   -0.975268    3.397428
N      -1.639673    0.044619    2.526329
N      -1.712631   -0.602940    1.354022
H      -0.111294    1.365653    1.120196
H       0.322388    0.027885   -1.327832
H       0.778382   -0.630911    0.257945
H      -2.068567    0.041711   -0.669516
H      -2.367802   -2.467734   -0.665422
H      -0.627475   -2.653883   -0.325313
H      -1.908351   -3.212456    3.263501
H      -1.779668   -0.760296    4.456181
