25

C      -0.098172    1.601956    0.199706
C      -0.169394    0.086620   -0.033729
C       0.509923   -0.456014   -1.302721
C       0.115515    0.315977   -2.611591
C       1.488761    1.038594   -2.601217
C       1.979726    0.057894   -1.503365
C       0.385997   -1.965778   -1.445671
C       0.455828   -2.950119   -0.302625
C      -0.833823   -2.771928   -1.068191
H       0.932719    1.957232    0.291668
H      -0.577463    2.166463   -0.605918
H      -0.614891    1.860464    1.129342
H       0.271671   -0.411795    0.838474
H      -1.227148   -0.204047   -0.052742
H      -0.000606   -0.361733   -3.461816
H      -0.777523    0.944848   -2.560624
H       2.046667    1.034340   -3.540690
H       1.423895    2.071527   -2.251572
H       2.470690    0.495134   -0.629653
H       2.632541   -0.726289   -1.896485
H       0.875767   -2.316843   -2.352373
H       1.024835   -3.861830   -0.449503
H       0.489099   -2.572772    0.713084
H      -1.652273   -2.276879   -0.558070
H      -1.151178   -3.561178   -1.741190
