15

O       0.111636    1.433478    0.072746
C       0.025406    0.073210   -0.014170
C       0.300633   -0.794777    1.273816
C       0.654994   -2.157583    0.637198
C      -0.287816   -1.954151   -0.578542
C      -1.258952   -0.878255    0.110333
O      -1.121608   -0.963741    1.525684
C       0.381206   -0.742796   -1.238921
O       0.746666   -0.432470   -2.339220
H       0.156828    1.780629   -0.827793
H       0.861726   -0.405138    2.121189
H       1.703274   -2.272069    0.350075
H       0.355998   -2.975432    1.295046
H      -0.647555   -2.804770   -1.147771
H      -2.256798   -0.698679   -0.280671
