20

C       0.034402    1.545860    0.075158
N       0.125743    0.093060    0.022757
C       0.770425   -0.546640   -1.117116
C       2.300352   -0.658217   -0.852539
C       1.306777   -1.663911   -0.292097
C       1.116105   -0.620833    0.878804
C       2.532657   -0.053615    0.531213
C       3.636991   -0.736017    1.318360
O       3.514154   -0.322655    2.675108
H       0.964425    2.080906   -0.171335
H      -0.737477    1.874666   -0.629242
H      -0.280624    1.847786    1.079560
H       0.349174   -0.555880   -2.115467
H       3.013071   -0.802081   -1.655904
H       1.205460   -2.736142   -0.365779
H       0.837855   -0.811259    1.913369
H       2.661504    1.030972    0.614373
H       3.543690   -1.829556    1.222513
H       4.619672   -0.452687    0.908125
H       4.222847   -0.732136    3.179546
