19

C       0.018085    1.453283    0.105551
C      -0.076137   -0.033421    0.039860
C      -0.085180   -0.880865   -1.014675
C      -0.004280   -0.625811   -2.481603
C      -0.030203   -2.268434   -0.374800
C      -0.997411   -2.091791    0.834081
C      -0.016222   -0.957408    1.256606
C       1.095810   -1.918476    0.676867
O       2.214328   -2.232461    0.919611
H       0.940675    1.768549    0.609949
H       0.013636    1.903503   -0.890855
H      -0.813767    1.886297    0.674866
H      -0.000366    0.444153   -2.706774
H       0.909403   -1.059792   -2.907996
H      -0.846612   -1.080127   -3.017971
H      -0.012937   -3.151548   -1.010343
H      -2.010304   -1.767128    0.581854
H      -1.005232   -2.945217    1.519976
H       0.015052   -0.527019    2.255551
