19

O       0.307718    0.081786    0.310588
C       0.356824    1.269284    0.417876
O       0.712303    2.080417   -0.595943
C       0.781305    3.489007   -0.343473
C       2.233099    3.955398   -0.295957
C       2.352844    5.464190   -0.121861
C       2.055504    6.068643    1.272713
O       3.370231    6.648965    1.354129
C       3.767851    6.043259    0.107825
H       0.112350    1.825385    1.345227
H       0.240180    3.976063   -1.160822
H       0.258969    3.726465    0.593220
H       2.749641    3.442391    0.525520
H       2.728937    3.644128   -1.223057
H       1.816301    5.981306   -0.923246
H       1.266533    6.828485    1.322008
H       1.884135    5.328866    2.068391
H       4.554267    5.289106    0.249470
H       4.115874    6.786413   -0.618940
