17

C      -0.035899    1.622656   -0.021021
C       0.060242    0.104692    0.038437
C       1.097337   -0.661726   -0.826500
N       1.660393   -1.400274    0.360190
C       2.201990   -0.357032    1.236020
C       0.729990   -0.554056    1.258377
C       0.027862   -1.066062    2.387545
C      -0.599493   -1.462334    3.335206
H       0.939223    2.099579    0.120535
H      -0.426910    1.948249   -0.991032
H      -0.710354    2.000583    0.754644
H      -0.931132   -0.333837   -0.101250
H       0.657882   -1.365153   -1.535287
H       1.846308   -0.051801   -1.344494
H       2.755324   -0.753514    2.081161
H       2.624521    0.543690    0.794131
H      -1.143657   -1.822339    4.172874
