16

O      -0.001169    0.030140   -0.187053
C      -0.028602    1.207486    0.009497
C      -1.133945    2.218182    0.393905
C      -0.031033    3.311539    0.557843
C       1.008994    2.318846    0.003674
N       2.428227    2.177180    0.282652
C       2.028053    2.592144   -1.074847
C       2.268591    1.683686   -2.158811
C       2.460121    0.953185   -3.093382
H      -1.837681    2.401719   -0.422810
H      -1.699525    1.954793    1.290575
H      -0.175011    4.223901   -0.023778
H       0.151554    3.580040    1.601987
H       2.760900    2.985235    0.805933
H       2.136726    3.646076   -1.326991
H       2.626989    0.289207   -3.905215
