15

O      -0.014204    1.411115    0.043505
C      -0.017880    0.035344    0.029830
C      -0.333508   -0.786955   -1.183810
C      -1.211330   -0.906685    0.044747
C      -0.527150   -1.809798    1.074766
C       0.692378   -0.812092    1.111914
C       2.020546   -1.323302    0.804878
N       3.066503   -1.731509    0.526661
H       0.676378    1.724952   -0.551511
H      -0.772714   -0.211413   -1.992172
H       0.304512   -1.609043   -1.500105
H      -2.266331   -0.668024    0.016597
H      -1.034699   -1.857575    2.039031
H      -0.292139   -2.823088    0.739732
H       0.717736   -0.267965    2.058746
