18

C      -0.159239    1.582898   -0.013889
C       0.015284    0.071289    0.016599
C       1.237741   -0.600748   -0.661682
C       2.147991   -0.184505    0.550909
N       3.101441   -1.244308    0.855371
C       2.410555   -2.414905    0.550084
O       2.836562   -3.542503    0.504562
C       1.019435   -1.869214    0.250847
C       0.787882   -0.617842    1.174362
H       0.764321    2.122242    0.215792
H      -0.497209    1.912533   -1.002386
H      -0.915846    1.899041    0.712389
H      -0.931809   -0.426470   -0.217805
H       1.505044   -0.609392   -1.720779
H       2.538688    0.823186    0.666936
H       4.082955   -1.169402    0.634763
H       0.218689   -2.576243    0.046004
H       0.543641   -0.644767    2.238114
