15

N      -0.071238   -1.021657    0.193891
C       0.165398    0.072676   -0.086193
C       0.433760    1.458739   -0.472875
O       1.241963    2.061613    0.527343
C       1.392808    3.428002    0.358530
C       2.632994    4.019343    0.918172
C       2.466596    3.957164   -0.600072
C       3.248499    3.026501   -1.359997
N       3.859360    2.273810   -1.991979
H       0.937224    1.471571   -1.448512
H      -0.525779    1.987319   -0.575679
H       0.466145    4.001568    0.394879
H       2.588254    4.996520    1.383037
H       3.340294    3.323772    1.353214
H       2.248183    4.886525   -1.115239
