17

C      -0.224135    1.485921   -0.036513
C      -0.028506    0.004198    0.112018
N       0.118740   -0.639478    1.205532
O       0.095990    0.192036    2.331679
C       0.004392   -0.812818   -1.152559
C      -0.090187   -2.348971   -1.075588
O      -1.335542   -2.313716   -1.851272
C      -1.312127   -0.942261   -1.913214
N      -2.115546   -0.122806   -2.417667
H       0.708243    1.958217   -0.370534
H      -0.983512    1.680218   -0.799597
H      -0.517273    1.938543    0.909754
H       0.180643   -0.441622    3.051744
H       0.805307   -0.450330   -1.806435
H       0.681221   -2.910004   -1.606257
H      -0.259723   -2.752172   -0.078357
H      -2.916554   -0.592458   -2.842970
