27

C       0.047880    1.426804    0.237833
C       0.144270   -0.084566   -0.000095
C       0.700134   -0.545962   -1.375622
C       0.670399   -2.085788   -1.395961
C      -0.140248    0.006373   -2.559967
C      -1.629509   -0.357588   -2.582952
C       2.122933    0.002719   -1.552247
C       3.334143   -0.540456   -0.836520
C       3.212279   -0.689101   -2.334551
H       1.024955    1.914944    0.175401
H      -0.616783    1.916061   -0.481363
H      -0.351569    1.627148    1.237238
H       0.780702   -0.523746    0.778516
H      -0.848705   -0.527622    0.143605
H      -0.334954   -2.455653   -1.175160
H       0.959520   -2.486145   -2.372638
H       1.338046   -2.514937   -0.642150
H      -0.046307    1.099041   -2.577186
H       0.327599   -0.342739   -3.489211
H      -2.114731    0.090824   -3.455956
H      -1.789791   -1.438377   -2.642631
H      -2.155626    0.007677   -1.695237
H       2.130810    1.083786   -1.666252
H       4.055823    0.165655   -0.439993
H       3.225577   -1.437021   -0.235938
H       3.026477   -1.684295   -2.721857
H       3.850532   -0.083994   -2.969402
