17

C      -0.110250    1.545906    0.075108
C       0.169450    0.083934   -0.029092
O      -0.728197   -0.843742    0.605067
C       0.674865   -0.909714    0.947762
C       1.324657   -1.713337   -0.151177
C       2.564992   -2.484710   -0.169021
O       1.280360   -3.119681   -0.257634
C       0.760581   -0.718434   -1.217243
O      -0.140062   -1.207788   -2.162867
H       0.781511    2.129171   -0.175385
H      -0.905783    1.832209   -0.621132
H      -0.430043    1.806035    1.087492
H       0.934608   -0.802620    1.994343
H       3.164657   -2.511956   -1.077888
H       3.110588   -2.666667    0.756272
H       1.549270   -0.185588   -1.756373
H      -0.831081   -1.664518   -1.665618
