21

C       0.385265    1.579490    0.121840
C       0.142906    0.075423   -0.031823
C       0.689855   -0.479284   -1.354234
O       2.140736   -0.318731   -1.410167
C       2.358452   -1.740345   -1.310559
C       0.855161   -2.039334   -1.462771
C       0.173551   -2.965137   -0.468539
C       0.032529    0.132785   -2.504972
C      -0.529583    0.608434   -3.455831
H       1.452058    1.801315    0.031243
H      -0.146627    2.146760   -0.647137
H       0.043098    1.927262    1.100857
H       0.634583   -0.458507    0.788260
H      -0.928119   -0.151683    0.029771
H       3.018726   -2.110161   -2.102622
H       2.781616   -2.020114   -0.335541
H       0.620278   -2.355796   -2.481284
H       0.404598   -2.704197    0.568103
H      -0.914550   -2.947886   -0.589226
H       0.504470   -3.996869   -0.629923
H      -1.015976    1.036391   -4.297480
