16

C      -0.012517    1.522340    0.171192
N      -0.052840    0.074710   -0.023323
C       0.681559   -0.449584   -1.173565
C      -0.052373   -0.112774   -2.500326
C      -1.410638   -0.648489   -2.537222
N      -2.479163   -1.084035   -2.591056
C       2.084583   -0.011480   -1.265219
C       3.224052    0.369996   -1.313726
H       1.003460    1.944155    0.207563
H      -0.563962    2.027525   -0.628244
H      -0.522389    1.757020    1.108826
H       0.281053   -0.389585    0.812965
H       0.670662   -1.541117   -1.072031
H      -0.086689    0.971323   -2.644010
H       0.517713   -0.523415   -3.339218
H       4.235557    0.692457   -1.354848
