13

O       0.428628    0.362223    0.882121
C       0.150960    1.286561    0.164482
C       1.141580    1.828057   -0.793541
N       1.901696    2.255029   -1.553279
C      -1.148799    2.023045    0.158231
N      -2.285088    1.357571    0.790107
C      -1.734898    2.531074    1.469107
C      -1.080052    2.345553    2.731008
C      -0.534804    2.239851    3.795971
H      -1.310168    2.662403   -0.706333
H      -3.143329    1.598211    0.300620
H      -2.271126    3.473139    1.368302
H      -0.051955    2.126317    4.735462
