19

C      -0.017654    1.527298    0.155737
C      -0.034556    0.039232   -0.001960
C      -0.076106   -0.698588   -1.122865
C      -0.059487   -0.254984   -2.549734
C      -0.036440   -2.199692   -0.816905
O       1.073893   -2.849306   -1.419429
C       0.019564   -2.247570    0.710143
O       1.248371   -1.696004    1.206282
C       0.048354   -0.868687    1.191287
H       0.905807    1.860292    0.646272
H      -0.098028    2.045464   -0.802393
H      -0.847499    1.866517    0.788743
H       0.066552    0.824803   -2.656210
H       0.755542   -0.756943   -3.082900
H      -0.988262   -0.540798   -3.061122
H      -0.925630   -2.713816   -1.202165
H       1.846634   -2.529919   -0.933737
H      -0.379891   -3.089186    1.268121
H      -0.300317   -0.564434    2.174026
