19

C      -0.044515    1.499414    0.051257
C       1.516458    1.568126   -0.002656
C       1.584511    0.025499    0.033770
C       2.532733   -0.831699   -0.800947
C       2.659626   -2.094224    0.026054
C       2.061380   -2.005706    1.215583
C       1.423422   -0.659304    1.414942
O      -0.031255   -0.658213    1.318704
C       0.027199   -0.049419    0.014292
H      -0.508058    1.878338    0.964158
H      -0.539393    1.949816   -0.812870
H       1.887763    1.982744   -0.944144
H       2.017738    2.088823    0.818436
H       2.144946   -1.031460   -1.808650
H       3.507028   -0.341501   -0.942385
H       3.194580   -2.966977   -0.334631
H       2.028067   -2.787712    1.965536
H       1.753854   -0.137792    2.322500
H      -0.573572   -0.584191   -0.727232
