16

C      -0.108178    1.532623   -0.122553
C       0.018443    0.076379    0.320002
N      -1.270667   -0.602586    0.325935
C      -1.400134   -1.888200   -0.141868
O      -0.511080   -2.526665   -0.649522
N      -2.727456   -2.366556    0.003271
C      -3.173306   -3.667162   -0.181542
O      -2.505904   -4.636221   -0.414344
H       0.872616    2.017325   -0.113936
H      -0.518787    1.598931   -1.134100
H      -0.762907    2.100775    0.548224
H       0.654261   -0.491281   -0.361741
H       0.483586    0.021019    1.313994
H      -1.978410   -0.238524    0.944277
H      -3.447790   -1.689414    0.205895
H      -4.277499   -3.701248   -0.067847
