23

C       0.185596    1.179551   -0.525276
O       0.139813   -0.210067   -0.311831
C       0.657571   -0.590954    0.940382
C       0.624683   -2.112839    1.058143
C       1.661515   -2.812207    0.146948
C       2.625801   -2.918103    1.360226
C       1.431515   -2.605685    2.304290
O      -0.661296   -2.659144    0.872301
C      -1.667976   -2.184561    1.738600
H       1.217956    1.564488   -0.501034
H      -0.240126    1.373870   -1.512752
H      -0.400093    1.730339    0.228402
H       1.699508   -0.246305    1.056223
H       0.080346   -0.125978    1.758141
H       1.277320   -3.786395   -0.162466
H       1.989344   -2.258580   -0.734631
H       3.131419   -3.874305    1.507364
H       3.381669   -2.128520    1.368390
H       1.598923   -1.897290    3.120958
H       0.976259   -3.513717    2.707463
H      -1.366730   -2.240948    2.795760
H      -1.961149   -1.150717    1.510165
H      -2.538547   -2.829159    1.592638
