15

O       0.016873    0.014045    0.027335
C       0.039569    1.210400    0.009421
C      -1.223120    2.152555    0.064294
O      -0.820448    3.520967   -0.154855
C       0.440912    3.418147   -0.788914
C       1.823614    3.890409   -0.229104
C       1.522998    3.180421    1.092456
C       1.116342    2.247322   -0.103419
O       2.382943    2.598051   -0.775087
H      -1.912229    1.817351   -0.722319
H      -1.733687    2.075987    1.028726
H       0.382470    3.383667   -1.881296
H       2.410453    4.783087   -0.445226
H       2.393661    2.831321    1.646303
H       0.726140    3.580544    1.717622
