20

C       0.047403    1.616685    0.028907
C       0.040223    0.090462    0.096046
C      -1.389065   -0.447075   -0.025796
C       1.024355   -0.683747   -0.837365
N       1.685251   -1.411884    0.309154
C       2.293302   -0.373864    1.125837
C       0.817413   -0.560538    1.256933
C       0.270455   -1.134613    2.501142
O      -0.784959   -0.820056    2.998280
H       1.055514    2.034003    0.106943
H      -0.380420    1.959967   -0.919777
H      -0.555873    2.039625    0.839016
H      -1.822365   -0.135703   -0.982630
H      -1.409853   -1.540587    0.014788
H      -2.019809   -0.072942    0.783616
H       0.534223   -1.398120   -1.500946
H       1.731807   -0.079372   -1.414909
H       2.914418   -0.761870    1.928438
H       2.671146    0.532361    0.658092
H       0.933195   -1.898626    2.968650
