16

N      -0.043028    1.209539    0.304212
C      -0.005515   -0.005980   -0.024643
O       1.134269   -0.705241   -0.332161
C       0.795926   -1.998576   -0.786363
C       0.055955   -2.936421    0.152924
O      -0.253779   -2.482780    1.442200
C      -1.355477   -1.572479    1.334942
C      -1.199872   -0.948912   -0.066633
C      -0.697503   -2.147516   -0.890176
H       0.893925    1.615741    0.306346
H       1.497955   -2.380486   -1.517140
H       0.227315   -4.005060    0.077383
H      -2.309919   -2.112196    1.418608
H      -1.275889   -0.841372    2.142310
H      -2.100107   -0.458517   -0.432171
H      -1.237368   -2.551550   -1.735687
