20

O       0.052633    1.250674   -0.668569
C       0.046120    0.160388    0.236042
C      -1.326156   -0.464509    0.330177
N      -1.746952   -1.149607   -0.940829
C      -1.556742   -1.913038    0.277429
C      -0.701745   -3.177401    0.486952
C      -1.275287   -3.196528    1.937763
C      -2.498013   -2.872326    1.024824
C      -1.969240   -3.982396    0.059833
H      -0.301391    0.900260   -1.495222
H       0.776125   -0.608876   -0.058396
H       0.353945    0.559468    1.208544
H      -2.081176    0.151641    0.816399
H      -2.736093   -0.984606   -1.113972
H       0.328146   -3.348635    0.175579
H      -1.294811   -4.172159    2.429417
H      -0.940913   -2.406726    2.614796
H      -3.528724   -2.690227    1.333337
H      -2.264660   -3.908070   -0.988778
H      -2.033460   -5.009058    0.429641
