19

C      -0.067263    1.547223   -0.115881
C       0.077761    0.047560    0.042412
C       1.326734   -0.757583   -0.187725
C       2.572864   -0.035683    0.338242
C       1.954767   -0.054701    1.782122
N       2.664815   -1.023355    2.619544
C       1.804543    1.244041    2.463023
N       1.716901    2.244548    3.038091
C       0.681943   -0.699717    1.203030
H       0.818762    2.101412    0.198717
H      -0.261119    1.796147   -1.164822
H      -0.907676    1.920243    0.478176
H      -0.797926   -0.491821   -0.316962
H       1.355800   -1.592197   -0.876718
H       3.470598   -0.654427    0.322207
H       2.794148    0.944534   -0.090546
H       3.573106   -0.647292    2.881732
H       2.153803   -1.162534    3.488338
H       0.141918   -1.467937    1.744105
