23

C       0.088244    1.627308   -0.115123
C       0.079383    0.117716   -0.012365
C       1.342772   -0.684439   -0.211420
C       0.690512   -0.634658    1.153864
C       1.352277    0.061282    2.300536
C       0.755701    0.028912    3.701300
C       2.064660   -0.668003    3.405861
C       2.169921   -2.175127    3.449974
O       3.238892   -0.009888    3.821473
H       1.028028    2.056623    0.243609
H      -0.035757    1.943370   -1.156883
H      -0.724775    2.074646    0.467753
H      -0.824517   -0.336715   -0.411260
H       1.303121   -1.607999   -0.779111
H       2.267549   -0.128631   -0.335823
H       0.146866   -1.531651    1.438741
H       1.842695    0.996736    2.050507
H       0.793408    0.939896    4.288472
H      -0.127813   -0.582384    3.860832
H       1.254906   -2.660475    3.101581
H       3.002553   -2.519489    2.828338
H       2.351329   -2.516634    4.476989
H       3.353925   -0.183747    4.762801
