15

O      -0.109845   -0.033541    0.158773
C      -0.128051    1.149923    0.039522
C      -1.203545    2.247680   -0.130706
C      -0.032187    3.257026   -0.015594
C       0.237840    4.028093    1.294618
N       1.586510    3.563657    1.613079
C       1.884384    2.319836    1.078996
O       2.759169    1.568149    1.410529
N       0.917619    2.123519    0.044764
H      -1.733625    2.230320   -1.084729
H      -1.928186    2.267469    0.686448
H       0.123526    3.887657   -0.893672
H       0.211597    5.110888    1.148946
H      -0.485250    3.768721    2.081818
H       2.036277    3.801263    2.483355
