16

C       0.144384   -1.130406   -0.170302
C       0.034373    0.060624   -0.060830
C      -0.088296    1.473308    0.071144
N      -1.155393    2.143933   -0.119649
C      -0.802678    3.547017    0.130470
C       0.684263    3.510978    0.500061
C       1.718698    4.504622    0.085121
C       1.349881    4.335297    1.552226
O       1.052300    2.126989    0.432865
H       0.233650   -2.184534   -0.269232
H      -1.000532    4.145384   -0.766873
H      -1.428522    3.949468    0.935924
H       2.680430    4.118499   -0.233261
H       1.386614    5.395332   -0.438964
H       0.763994    5.109488    2.037687
H       2.070810    3.838619    2.191725
