15

C      -0.156855    1.599419    0.012289
C       0.027301    0.101143   -0.023180
N       1.317763   -0.434716   -0.472373
C       0.942484   -0.662972    0.920016
C       1.741502    0.060625    1.955698
O       1.776244   -0.276812    3.110722
C      -1.174625   -0.699947   -0.417140
O      -2.255907   -0.232065   -0.657782
H       0.793183    2.109169    0.176089
H      -0.575166    1.939821   -0.938681
H      -0.858703    1.882040    0.801318
H       1.203423   -1.287259   -1.019012
H       0.608923   -1.650635    1.234010
H       2.312759    0.931099    1.571769
H      -0.977816   -1.797270   -0.491941
