21

O      -0.165450    1.439373   -0.046242
C       0.008791    0.033927    0.082792
C      -1.366281   -0.607064   -0.028295
C      -2.069868   -0.428407   -1.422925
C      -2.365095   -1.903767   -1.751085
C      -2.861962   -2.444683   -0.375696
C      -1.391399   -2.147943    0.050876
C      -0.994296   -2.567268   -1.406367
O      -0.842841   -3.942545   -1.663729
H       0.702225    1.853164   -0.027248
H       0.682981   -0.351192   -0.697705
H       0.456976   -0.221899    1.057062
H      -1.983051   -0.177751    0.768799
H      -2.975626    0.179488   -1.358290
H      -1.407691    0.041335   -2.156355
H      -2.881309   -2.125675   -2.685879
H      -3.659934   -1.896085    0.133062
H      -3.117150   -3.507846   -0.380245
H      -0.932721   -2.621003    0.920788
H      -0.105195   -2.101373   -1.838876
H      -1.606302   -4.416006   -1.318819
