21

C      -0.012655    1.526087    0.089639
C       0.027963    0.011221   -0.013660
C       0.769262   -0.502927   -1.257978
C       0.944842   -2.004299   -1.151397
C      -0.064791   -2.957660   -1.750369
C       1.342399   -2.850095   -2.312655
O       1.521051   -2.378558    0.078879
C       0.767598   -1.878690    1.158813
O       0.683511   -0.481308    1.157972
H       1.002430    1.933769    0.118701
H      -0.535489    1.954414   -0.771064
H      -0.531714    1.833017    1.001645
H      -1.001599   -0.388022   -0.030303
H       0.218555   -0.239503   -2.167021
H       1.755185   -0.024449   -1.305437
H      -0.301156   -3.849534   -1.181430
H      -0.887723   -2.553921   -2.330758
H       1.483906   -2.369107   -3.274531
H       2.023611   -3.667236   -2.104745
H      -0.246926   -2.318659    1.137672
H       1.290778   -2.170401    2.071660
