14

N       0.015690    1.353594    0.130697
C       0.002656   -0.023175    0.036964
N      -1.141511   -0.651126    0.026395
C      -1.145439   -2.025823    0.016452
O      -2.163275   -2.714703    0.022892
C       0.153148   -2.734470   -0.023159
O       0.067565   -4.072156   -0.060587
C       1.300390   -2.032513   -0.021139
N       1.212894   -0.640102    0.009127
H       0.740056    1.841772   -0.375669
H      -0.905254    1.743708   -0.010155
H      -0.902198   -4.221156   -0.044699
H       2.292234   -2.460394   -0.047940
H       2.052866   -0.100469    0.139572
