17

C      -0.144529    1.515511    0.103764
C       0.097011    0.046296    0.044076
O      -0.789702   -0.850991    0.722382
C       0.625054   -0.945825    0.974308
C       1.294629   -1.756604   -0.171101
C       0.301115   -2.172055   -1.210350
C       0.748996   -0.722550   -1.180630
C       1.427801   -0.068064   -2.238916
C       1.993759    0.519795   -3.125631
H       0.742167    2.060586   -0.232136
H      -0.977447    1.795674   -0.550704
H      -0.388627    1.819216    1.124890
H       0.957247   -0.869782    2.002537
H       2.307430   -2.132880   -0.127763
H       0.710789   -2.741558   -2.037241
H      -0.713939   -2.415867   -0.924503
H       2.492515    1.029410   -3.911912
