17

C      -0.066236    1.541422    0.005014
C       0.026579    0.016348   -0.003564
O      -1.260613   -0.574345   -0.036561
C       0.993473   -0.570571   -1.103820
C       1.990708   -1.292390   -0.180862
O       1.111470   -1.913693    0.811227
C       0.755681   -0.558679    1.230119
C       2.243596   -0.244899    0.929006
O       3.156739    0.326314    1.433512
H       0.919598    2.008361    0.094205
H      -0.520884    1.902317   -0.924940
H      -0.687839    1.878983    0.839658
H      -1.722579   -0.242164   -0.814088
H       0.460125   -1.285594   -1.734205
H       1.461861    0.194255   -1.729464
H       2.748491   -1.955695   -0.593133
H       0.279526   -0.489172    2.205357
