16

C       0.093754    1.519634    0.070638
C      -0.049755    0.040027   -0.012519
C      -1.166383   -0.732990    0.013945
C      -2.603131   -0.338299    0.135036
C      -0.731108   -2.126048   -0.102563
O      -1.382388   -3.143330   -0.122632
C       0.835657   -2.077150   -0.204607
O       1.615451   -2.985211   -0.313828
N       1.122333   -0.725483   -0.139114
H       0.711804    1.798392    0.932841
H       0.594251    1.908590   -0.824512
H      -0.874308    2.010797    0.166198
H      -3.177411   -0.687960   -0.729974
H      -3.060180   -0.797510    1.018515
H      -2.732683    0.744015    0.211535
H       2.054160   -0.346686   -0.177940
