21

C       0.165524    1.526770    0.090869
C       0.059559   -0.000493   -0.002412
C      -1.376781   -0.511416    0.025901
O      -2.174382    0.009487   -1.037138
C      -1.622136   -2.045314    0.096631
C      -2.668727   -1.857960    1.244293
C      -2.614632   -2.732733    2.489524
C      -2.168608   -0.410046    1.363611
O      -2.272564    0.442771    2.201141
H       1.212132    1.843415    0.111233
H      -0.298121    2.010829   -0.775817
H      -0.322727    1.897254    0.996581
H       0.530309   -0.358494   -0.926882
H       0.607007   -0.458967    0.830375
H      -2.266669    0.958698   -0.897069
H      -1.991636   -2.478743   -0.832857
H      -0.733585   -2.588315    0.429951
H      -3.683862   -1.843709    0.829504
H      -1.602584   -2.763660    2.907071
H      -3.282332   -2.342666    3.263549
H      -2.917591   -3.759940    2.263602
