17

C      -0.019424    1.370661    0.110301
O      -0.030554   -0.054255    0.036740
C      -1.251861   -0.607028    0.032817
N      -2.407003    0.014817    0.081154
C      -3.349890   -0.995304    0.045325
N      -4.713274   -0.687070    0.151691
C      -2.757125   -2.228446   -0.026489
N      -3.215170   -3.557978   -0.055763
N      -1.374663   -1.947020   -0.034682
H       1.032354    1.659369    0.111688
H      -0.533871    1.809099   -0.750193
H      -0.511719    1.717189    1.023841
H      -5.296913   -1.302461   -0.401083
H      -4.878245    0.274405   -0.119087
H      -3.821683   -3.780864    0.725612
H      -3.698378   -3.803409   -0.913670
H      -0.635262   -2.627367   -0.063944
