18

C       0.025831    1.512712    0.113811
O       1.328215    2.068868   -0.007330
C       2.151676    1.385537   -0.963642
C       2.414706   -0.019776   -0.404659
N       1.175675   -0.791237   -0.282981
C      -0.032470   -0.005728   -0.052514
C       0.227467   -0.608923   -1.410651
C       0.600671    0.303071   -2.513287
C       1.507428    1.267677   -2.324424
H      -0.324798    1.785146    1.113819
H      -0.653796    1.980673   -0.616056
H       3.073669    1.971031   -1.004637
H       3.106648   -0.577596   -1.044141
H       2.853955    0.069124    0.593587
H      -0.766166   -0.501527    0.580430
H      -0.310441   -1.512636   -1.683473
H       0.112387    0.157929   -3.472304
H       1.790346    1.952096   -3.116377
