18

O      -0.025052    1.385693   -0.160057
C       0.098155    0.017873    0.189051
C      -1.272833   -0.632371    0.140815
N      -1.964347   -0.643077   -1.248187
C      -1.116519   -1.899423   -1.551917
C      -1.549296   -2.152612   -0.095450
C      -2.933684   -1.635238   -0.583929
C      -1.245414   -3.316784    0.791436
O      -0.572022   -4.259118    0.455040
H      -0.543608    1.415472   -0.973728
H       0.834481   -0.495205   -0.444090
H       0.480672   -0.012956    1.215309
H      -1.915229   -0.147907    0.883586
H      -1.556817   -2.534007   -2.323446
H      -0.068229   -1.701135   -1.767352
H      -3.604072   -1.174725    0.145512
H      -3.474984   -2.259929   -1.298075
H      -1.692545   -3.259721    1.811399
