18

C      -0.041204    1.665083    0.006892
C      -0.043658    0.136648    0.025757
C       0.854606   -0.449088    1.127160
O      -1.386231   -0.407888    0.094758
C      -2.158233   -0.169455    1.186136
N      -3.350318   -0.820275    1.043416
O      -1.843459    0.488623    2.150638
C       0.462521   -0.412897   -1.312952
O       1.414636    0.027716   -1.898431
H       0.950690    2.008215   -0.295887
H      -0.767159    2.036856   -0.722284
H      -0.290623    2.060755    0.990786
H       0.519977   -0.101526    2.104369
H       0.825121   -1.543175    1.109524
H       1.885153   -0.127905    0.954760
H      -3.615316   -1.170266    0.138957
H      -4.076642   -0.567839    1.690857
H      -0.115341   -1.286364   -1.686844
