19

C      -0.119032    1.579819    0.070210
C      -0.021054    0.047724    0.102717
C      -1.366504   -0.598488   -0.085120
O      -2.322340   -0.291913    0.969170
C      -2.670387   -1.681657    1.143500
C      -1.753125   -2.113949   -0.014026
N      -2.310288   -1.975122   -1.360644
C      -2.079745   -0.595217   -1.447491
N      -2.341350    0.326295   -2.271087
H       0.866522    2.031048    0.216536
H      -0.523755    1.919464   -0.886335
H      -0.780732    1.935921    0.864497
H       0.647558   -0.308178   -0.690425
H       0.400180   -0.286459    1.058490
H      -2.354222   -2.047950    2.128386
H      -3.742158   -1.871639    1.010529
H      -1.062925   -2.945570    0.126423
H      -3.116175   -2.467071   -1.724572
H      -2.900937   -0.009113   -3.057906
