23

C      -0.506420    1.570957    0.324425
C       0.194873    0.260610   -0.052700
C       0.866338   -0.403999    1.132985
C       0.081919   -1.292282    2.064341
O      -1.275834   -1.464442    1.768976
C       1.126592   -1.889508    1.154806
C       0.831568   -2.934067    0.070322
C       1.906578   -3.851548    0.728118
C       2.379196   -2.652557    1.604196
H       0.197617    2.287024    0.763353
H      -0.958823    2.044543   -0.552879
H      -1.297634    1.385672    1.056922
H      -0.535811   -0.428349   -0.486186
H       0.947007    0.451771   -0.829338
H       1.624449    0.208334    1.620155
H       0.311916   -1.241322    3.130341
H      -1.516155   -2.373151    1.978531
H      -0.191770   -3.319041    0.031271
H       1.107213   -2.604207   -0.936262
H       1.464384   -4.655917    1.321480
H       2.650164   -4.288207    0.058072
H       3.307695   -2.201068    1.238973
H       2.486845   -2.836362    2.677873
