10

N      -0.076084    1.339865   -0.072656
C       0.091516   -0.000084    0.108637
O       1.162708   -0.524379    0.300589
C      -1.238083   -0.785867    0.100874
C      -1.045230   -2.215643   -0.103517
N      -0.934591   -3.351860   -0.273530
H       0.746781    1.920278   -0.084049
H      -0.959041    1.752916   -0.315874
H      -1.733197   -0.625656    1.066532
H      -1.916467   -0.400710   -0.668586
