17

O      -0.180589    1.528418   -0.328552
C      -0.005389    0.150287   -0.143036
C      -1.346646   -0.606113    0.063382
C      -1.178053   -2.129632    0.016355
O      -0.877030   -2.632238    1.313876
C      -1.933413   -2.394524    2.167793
O      -2.194007   -0.991522    2.365637
C      -1.961780   -0.114573    1.370837
O      -2.191259    1.056505    1.562053
H      -0.796217    1.827264    0.358030
H       0.466236   -0.239953   -1.052339
H       0.667946   -0.080062    0.699749
H      -2.016076   -0.274959   -0.737942
H      -2.090930   -2.614146   -0.361606
H      -0.346410   -2.418044   -0.631282
H      -2.864680   -2.853795    1.800243
H      -1.675665   -2.786676    3.152372
