21

C       0.007282    1.415763   -0.010528
O       0.007317    0.008709    0.034247
C      -1.288782   -0.542565   -0.002739
C      -1.166031   -2.060527    0.050459
C      -2.528704   -2.756619    0.042498
C      -2.414031   -4.302599    0.051170
N      -1.755673   -4.910381    1.209279
C      -3.758778   -4.888568   -0.089079
N      -4.829363   -5.309224   -0.196002
H       1.048789    1.744285    0.021295
H      -0.457332    1.795844   -0.934215
H      -0.529737    1.852299    0.846649
H      -1.889354   -0.176556    0.848927
H      -1.816027   -0.231593   -0.921720
H      -0.565560   -2.392001   -0.806026
H      -0.603571   -2.324123    0.953352
H      -3.122014   -2.446992    0.912396
H      -3.098083   -2.456628   -0.845744
H      -1.842725   -4.608196   -0.835535
H      -0.787942   -4.608957    1.249942
H      -2.203890   -4.604710    2.068448
