15

C       0.280553    0.972829    0.372921
O      -0.212829    0.112458   -0.649789
C       0.612745   -0.885380   -1.014635
N       0.246448   -1.688382   -1.913561
C       1.075148   -2.779672   -2.356086
C       2.447763   -2.977590   -1.718847
F       2.367155   -3.191143   -0.393038
F       3.061234   -4.038394   -2.261766
F       3.249347   -1.911776   -1.895933
H       0.469070    0.423150    1.302660
H       1.199626    1.481924    0.059509
H      -0.497710    1.715998    0.548510
H       1.562567   -0.900588   -0.469675
H       0.531307   -3.721623   -2.215588
H       1.247088   -2.683589   -3.434963
