14

C       0.270066    1.458196   -0.003950
N      -0.023075    0.027445   -0.007123
C      -0.350233   -0.658242   -1.149563
N      -0.617903   -1.906479   -1.226278
C      -0.578701   -2.647645   -0.061602
N      -0.824017   -3.881829   -0.019591
O      -0.242867   -1.968508    1.142363
C       0.038377   -0.648166    1.211578
O       0.317674   -0.109102    2.244143
H       1.282921    1.637282    0.362746
H       0.178917    1.832674   -1.024607
H      -0.431089    1.987734    0.644393
H      -0.374037   -0.051389   -2.052417
H      -0.739146   -4.230768    0.934516
