23

C      -0.165446    1.534209   -0.030150
C       0.058380    0.023517   -0.043650
C       0.984221   -0.507882   -1.159997
C       1.197852   -1.976752   -0.700564
C       1.985476   -1.299765    0.463180
C       2.981378   -2.041600    1.323641
C       2.408142   -0.234798   -0.598543
C       0.850971   -0.554007    1.193080
O       1.424086    0.420812    2.051881
H       0.772804    2.087921    0.051885
H      -0.670839    1.852175   -0.948143
H      -0.802723    1.838473    0.808874
H      -0.918560   -0.470256   -0.115035
H       0.712998   -0.259611   -2.187452
H       0.313715   -2.574781   -0.452168
H       1.858119   -2.542301   -1.363060
H       3.767854   -2.501882    0.716553
H       3.453119   -1.361539    2.039363
H       2.490942   -2.838790    1.895426
H       3.193493   -0.610087   -1.259675
H       2.658989    0.766928   -0.244658
H       0.233737   -1.251084    1.779217
H       0.713231    0.871548    2.516757
