18

C       0.122414    1.011667    0.507453
N      -0.110712   -0.166108   -0.302408
C      -1.097212   -0.884145   -0.012793
O      -1.364174   -2.000096   -0.743243
C      -2.493664   -2.728303   -0.350372
C      -2.532612   -4.142223   -0.774067
C      -2.363715   -3.818561    0.713837
C      -1.048266   -4.094419    1.340797
O      -0.911398   -4.436406    2.489913
H       1.118216    0.951158    0.960121
H       0.116963    1.900929   -0.132535
H      -0.616303    1.157182    1.312001
H      -1.805976   -0.700974    0.808340
H      -3.416943   -2.153443   -0.341059
H      -3.471771   -4.576129   -1.094337
H      -1.651523   -4.513787   -1.286794
H      -3.213141   -3.968253    1.371132
H      -0.175055   -3.969942    0.664554
