14

C      -0.029454    1.499521    0.021031
C      -0.017101    0.008115    0.012427
N      -0.042607   -0.700745   -1.081118
O      -0.020338   -2.006387   -0.693544
N       0.020149   -2.133268    0.675520
C       0.022508   -0.903387    1.119327
N       0.057711   -0.525350    2.452386
C       0.097032   -1.354898    3.560393
O       0.107271   -2.555141    3.536794
H       0.868698    1.902349    0.502854
H      -0.065211    1.875012   -1.002674
H      -0.901853    1.887352    0.559180
H       0.053475    0.467083    2.631390
H       0.118209   -0.751402    4.488810
