15

O      -0.003375    1.420136    0.008089
C      -0.019499    0.007424    0.002288
C      -1.431770   -0.459447    0.011964
C      -2.573180    0.240158    0.023533
C      -3.720963   -0.693005    0.029813
N      -4.944320   -0.342661    0.041106
N      -3.157385   -1.974386    0.021194
C      -1.766949   -1.921408    0.009262
O      -1.010238   -2.864902    0.000870
H       0.912916    1.710651    0.001944
H       0.485766   -0.411526   -0.883937
H       0.500338   -0.418997    0.876425
H      -2.698269    1.311857    0.028326
H      -5.569808   -1.150999    0.043678
H      -3.672010   -2.839597    0.023108
