16

O      -0.037464    1.443700    0.055248
C      -0.000207    0.030847   -0.002262
C      -1.381312   -0.553116   -0.239723
C      -1.583677   -0.607587   -1.758002
C      -0.318753   -0.041266   -2.394148
C       0.632362   -0.559460   -1.297986
O       0.299051   -1.950128   -1.185026
C      -1.105261   -1.823784   -1.003620
H       0.851447    1.756683    0.251451
H       0.475687   -0.398196    0.890351
H      -2.193808   -0.443140    0.464670
H      -2.562682   -0.547830   -2.212774
H      -0.096317   -0.479638   -3.370630
H      -0.316960    1.048237   -2.456632
H       1.705536   -0.442554   -1.439789
H      -1.632946   -2.760131   -0.893868
