21

C      -0.210124    1.507363   -0.023636
C      -0.000299   -0.006363    0.025551
C       0.777328   -0.491879    1.272758
C       0.086053   -0.144115    2.513484
C      -0.484104    0.140581    3.533544
C       1.046569   -2.002994    1.171670
C       1.567125   -2.761401    2.411854
C       0.262024   -3.571913    2.282974
O      -0.168879   -2.781137    1.153186
H       0.746791    2.041699   -0.036163
H      -0.762820    1.793502   -0.923607
H      -0.775009    1.855075    0.846032
H      -0.961986   -0.528365    0.003559
H       0.557063   -0.333012   -0.861195
H       1.762160    0.001016    1.278364
H      -0.988823    0.397949    4.431714
H       1.634150   -2.178400    0.258847
H       2.492270   -3.320191    2.265252
H       1.640928   -2.153801    3.314356
H       0.385979   -4.628104    2.014062
H      -0.437681   -3.493310    3.122152
