20

C      -0.139924    1.598302   -0.103443
C      -0.060897    0.080090   -0.079999
C       1.200747   -0.618296   -0.611769
N       2.015132   -0.250585    0.650212
C       2.466057   -1.706275    0.800503
C       2.897190   -2.140573    2.186144
C       1.020324   -1.865905    0.320948
O       0.235685   -2.994424    0.149901
C       0.581409   -0.620332    1.130238
H       0.799488    2.042967    0.234411
H      -0.348879    1.962896   -1.115257
H      -0.944729    1.957207    0.547545
H      -0.993212   -0.389286   -0.409422
H       1.674006   -0.577129   -1.595885
H       3.235886   -1.949207    0.055282
H       2.138562   -1.913240    2.940729
H       3.077650   -3.220474    2.208674
H       3.825515   -1.636908    2.474175
H       0.625523   -3.538471   -0.543606
H       0.315319   -0.561288    2.186161
