19

C      -0.004305    1.599760   -0.026659
C      -0.024061    0.070101    0.032543
N      -1.369947   -0.482956    0.052918
C      -2.150202   -0.833303    1.164042
C      -1.658100   -0.741989    2.566851
C      -3.339516   -1.250786    0.639950
N      -3.340822   -1.171514   -0.745248
C      -2.156550   -0.709586   -1.032903
O      -1.669823   -0.451053   -2.264007
H       1.027653    1.964180   -0.038180
H      -0.504027    1.953370   -0.932479
H      -0.512892    2.034647    0.838781
H       0.493321   -0.346269   -0.836322
H       0.498232   -0.287737    0.924043
H      -1.382217    0.280265    2.855548
H      -2.448578   -1.072047    3.245380
H      -0.782862   -1.378781    2.750355
H      -4.203027   -1.610659    1.178828
H      -2.369238   -0.699710   -2.881239
