14

C       0.050124    1.494359   -0.049376
C      -0.040175    0.012709   -0.061398
C      -1.095984   -0.849046    0.087058
C      -2.457594   -0.549594    0.296240
N      -3.585197   -0.336360    0.460307
C      -0.495636   -2.152817   -0.024965
N      -1.139268   -3.352367    0.122409
N       0.798338   -2.066902   -0.232213
O       1.078101   -0.681833   -0.244847
H       0.715865    1.831727    0.751281
H       0.457295    1.862618   -0.996257
H      -0.938389    1.929706    0.105112
H      -2.117790   -3.360701   -0.121739
H      -0.625419   -4.155866   -0.207774
