19

O       0.047413    1.383281   -0.081444
C      -0.039743   -0.029722    0.020192
C       0.413219   -0.600169    1.426927
C      -0.911892   -1.178199    1.995177
C      -1.589174   -1.860842    0.787432
C      -3.005847   -1.222487    0.928895
C      -2.908721   -0.548007   -0.478124
C      -1.484548   -0.456750    0.111379
C      -2.017115   -0.193764    1.560412
H       0.978527    1.625537   -0.074635
H       0.504014   -0.510360   -0.805547
H       1.186836   -1.369702    1.330210
H       0.814641    0.213674    2.040054
H      -0.874440   -1.628472    2.989670
H      -1.339019   -2.805521    0.298854
H      -3.887952   -1.665620    1.392656
H      -3.046171   -1.199112   -1.347576
H      -3.447812    0.394463   -0.611840
H      -2.256937    0.794286    1.955139
