23

C      -0.074071    1.508250    0.113354
C      -0.017047    0.055091    0.039661
C       0.039343   -1.148130   -0.004535
C       0.044718   -2.612249   -0.072371
O      -1.282303   -3.129801    0.057562
C       0.767198   -3.170084   -1.340835
C       2.215078   -2.653764   -1.364900
C       0.766876   -4.705741   -1.246377
C       0.025681   -2.726478   -2.612554
H       0.855573    1.918436    0.522902
H      -0.226619    1.955235   -0.875047
H      -0.894245    1.840124    0.759372
H       0.582840   -3.003616    0.801450
H      -1.864973   -2.552394   -0.445943
H       2.751097   -2.934268   -0.450773
H       2.758911   -3.084419   -2.212277
H       2.251072   -1.564561   -1.455152
H      -0.251723   -5.090335   -1.158976
H       1.230919   -5.145050   -2.135578
H       1.332924   -5.047174   -0.372033
H      -0.011842   -1.635320   -2.690491
H       0.529794   -3.111767   -3.504673
H      -1.000116   -3.109220   -2.624515
