17

C      -0.154063    1.522588    0.094958
C      -0.026356   -0.001071   -0.024684
C      -1.375674   -0.694150    0.162765
C       0.838682   -0.471477   -1.247975
C       2.014577   -0.864666   -0.303294
C       1.095551   -0.550933    0.887622
O       1.178949   -0.712243    2.071229
H       0.812293    2.022170   -0.031563
H      -0.834597    1.909489   -0.671671
H      -0.549510    1.800546    1.076890
H      -2.095263   -0.350990   -0.588969
H      -1.285559   -1.781464    0.072094
H      -1.785377   -0.474378    1.153613
H       0.405819   -1.324915   -1.774302
H       1.067117    0.308751   -1.976402
H       2.373365   -1.896396   -0.349129
H       2.884207   -0.201594   -0.350696
