16

C       0.103622    1.508607    0.144667
C       0.037024    0.056247    0.097044
C      -0.015997   -1.147138    0.067387
C      -0.042907   -2.582858    0.016103
O      -0.683769   -3.285888    1.101976
C      -1.292411   -3.351680   -0.175773
C      -2.628082   -2.646978   -0.337990
C      -3.741664   -3.447557    0.169162
N      -4.618717   -4.089896    0.559760
H       1.139085    1.857906    0.073226
H      -0.460454    1.960721   -0.678187
H      -0.312788    1.888245    1.083820
H       0.880585   -3.054633   -0.318259
H      -1.222076   -4.323344   -0.665853
H      -2.597327   -1.686991    0.184966
H      -2.802772   -2.437525   -1.400243
