18

C       0.093524    1.551840   -0.133993
C       0.008143    0.049893    0.030197
C      -1.339734   -0.541746   -0.332224
O      -1.466644   -1.939872    0.007939
C      -0.950528   -2.297675    1.227749
N      -0.009524   -1.735096    1.853478
C       0.647877   -0.630552    1.239887
C       1.233297   -0.797383   -0.173332
O       1.248554   -2.009376   -0.848855
H       1.079894    1.919389    0.163352
H      -0.069803    1.850811   -1.176432
H      -0.652193    2.064047    0.485564
H      -2.134167    0.010956    0.186920
H      -1.534070   -0.490938   -1.407900
H      -1.448334   -3.183552    1.613187
H       1.215604   -0.023242    1.937997
H       2.163799   -0.267110   -0.354277
H       0.355837   -2.373248   -0.867782
