21

C       0.165247    1.282078   -0.417970
C      -0.116898   -0.202378   -0.207104
C      -1.537585   -0.501517    0.240263
O      -2.375034    0.365321    0.361140
C      -1.876846   -1.963460    0.550401
C      -2.083014   -2.135674    2.067866
C      -3.133829   -2.358913   -0.202446
C      -3.092851   -3.101727   -1.467446
O      -3.429207   -3.754778   -0.239981
H       1.196738    1.438426   -0.745352
H      -0.506196    1.702124   -1.170938
H       0.006118    1.843830    0.506137
H       0.062126   -0.779230   -1.126361
H       0.566157   -0.642847    0.533527
H      -1.056487   -2.612587    0.224216
H      -2.871052   -1.463811    2.419499
H      -2.372782   -3.166588    2.286737
H      -1.167669   -1.908653    2.623361
H      -3.992229   -1.716426   -0.008899
H      -3.907289   -3.001868   -2.183227
H      -2.131853   -3.384850   -1.896295
