16

O      -0.014022    0.001263    0.159674
C       0.026892    1.207345    0.051277
C       1.264398    1.981055   -0.028358
C       1.377730    3.318480   -0.083793
C       2.837737    3.663206   -0.035614
C       3.365977    3.340494    1.406843
C       3.688715    1.961529    0.862243
C       2.635629    1.398759   -0.053165
N       3.576511    2.422932   -0.569686
H      -0.902801    1.815331   -0.004090
H       0.570857    4.039872   -0.027909
H       3.145199    4.603019   -0.490140
H       4.286021    3.893055    1.606771
H       2.679146    3.445413    2.251759
H       4.510166    1.336699    1.198867
H       2.785415    0.389783   -0.419549
