18

C      -0.138205    1.508844    0.039109
C       0.006673   -0.018297    0.084229
C       0.818885   -0.536367   -1.133621
N       2.187342   -0.531097   -0.638443
C       2.299247   -0.587342    0.719221
O       3.319737   -0.674914    1.367219
C       0.860157   -0.533223    1.266108
C       0.776370    0.149891    2.615387
O      -0.175529    0.771907    3.014463
H       0.841860    1.997893    0.005012
H      -0.690761    1.805159   -0.858109
H      -0.672470    1.876926    0.914972
H      -0.987094   -0.471935    0.093155
H       0.502960   -1.546548   -1.431207
H       0.711711    0.120656   -2.001929
H       2.996524   -0.667942   -1.223274
H       0.603460   -1.585163    1.478128
H       1.681551   -0.003208    3.238359
