17

C       0.090038    1.391682   -0.064891
N      -0.060018   -0.035801    0.089285
C      -1.266099   -0.684304    0.043177
C      -2.495533   -0.007100    0.093138
C      -3.656888   -0.771425    0.071485
C      -3.595976   -2.155941   -0.001579
C      -2.318921   -2.719885   -0.054030
O      -2.205124   -4.064776   -0.132458
N      -1.189950   -2.026198   -0.035802
H       1.153681    1.637291   -0.046681
H      -0.334993    1.768880   -1.007037
H      -0.388204    1.932134    0.760815
H       0.728513   -0.625551   -0.120195
H      -2.538446    1.071926    0.150084
H      -4.622404   -0.276569    0.110529
H      -4.475167   -2.785137   -0.022805
H      -1.255626   -4.246302   -0.155063
