16

O      -0.048028    1.476741    0.068354
C       0.050755    0.060733    0.062839
C      -1.369700   -0.495447   -0.048085
C      -2.077746   -0.226151   -1.350095
C      -2.541452   -1.337438   -1.924995
C      -2.233423   -2.575279   -1.125532
C      -1.395627   -2.033606    0.042780
O      -0.828076   -2.692065    0.875283
H       0.841133    1.839882    0.118099
H       0.654844   -0.295421   -0.786428
H       0.506158   -0.324722    0.985823
H      -1.932272   -0.087413    0.805127
H      -2.181080    0.777406   -1.743713
H      -3.086319   -1.371448   -2.861420
H      -3.128750   -3.080310   -0.737592
H      -1.668972   -3.339719   -1.673817
