19

C      -0.012105    0.925889    0.612966
C      -0.171390   -0.518416    0.182880
O       0.633767   -1.367822    0.494182
C      -1.409169   -0.810539   -0.668192
O      -1.613007   -2.142606   -1.029866
C      -2.181876   -2.950273   -0.031420
C      -2.346829   -4.402867   -0.362756
C      -1.319942   -3.981980    0.666641
O       0.009648   -4.104193    0.305375
H       0.995926    1.088301    0.995493
H      -0.219630    1.615416   -0.211587
H      -0.734002    1.148681    1.407726
H      -2.286049   -0.382211   -0.150931
H      -1.294270   -0.239582   -1.599990
H      -2.970616   -2.452034    0.533779
H      -3.255285   -4.909648   -0.057013
H      -1.927298   -4.718675   -1.311320
H      -1.543259   -4.182282    1.716370
H       0.386620   -3.208718    0.297214
