21

C      -0.030423    1.541887    0.052627
C      -0.028331    0.039981   -0.030712
C      -0.074889   -0.614715   -1.194753
C      -0.049796   -2.115634   -1.341537
O       0.770585   -2.513955   -2.439714
C       0.369653   -2.803144   -0.036868
C      -0.347528   -2.182755    1.155533
O       0.009900   -2.929741    2.311187
C       0.031229   -0.702026    1.287642
H       0.850106    1.906714    0.597571
H      -0.034271    2.003247   -0.938196
H      -0.907020    1.906013    0.604053
H      -0.127390   -0.062496   -2.131035
H      -1.050498   -2.467218   -1.629113
H       1.655876   -2.171719   -2.271282
H       0.166812   -3.876253   -0.086619
H       1.452260   -2.681173    0.103636
H      -1.435363   -2.251245    0.983095
H      -0.452898   -2.550798    3.065597
H       1.045880   -0.640760    1.707958
H      -0.624777   -0.206890    2.018471
