21

C       0.250772    1.355007    0.219671
C      -0.066419   -0.137791    0.249597
O       0.306921   -0.612319    1.527112
C      -1.550264   -0.442099   -0.099877
C      -1.853227   -1.959849   -0.243286
C      -2.482283   -2.383468    1.093312
O      -1.422200   -2.898073    1.934526
C      -3.039550   -1.082667    1.625657
C      -2.517019   -0.034327    0.989714
H       1.302591    1.512390    0.473058
H       0.065523    1.778624   -0.772389
H      -0.353515    1.897066    0.953553
H       0.538022   -0.631329   -0.533520
H      -0.094925   -1.482666    1.679633
H      -1.763311    0.078711   -1.041559
H      -2.580884   -2.114987   -1.044793
H      -0.971034   -2.564091   -0.472423
H      -3.237438   -3.170729    0.974506
H      -1.715962   -2.850069    2.851024
H      -3.730355   -1.039367    2.461415
H      -2.719180    1.002690    1.233961
