16

C       0.017077    1.556348    0.023943
C       0.019072    0.025789   -0.038704
C       0.780212   -0.491054   -1.263433
N       0.679148   -0.486918    1.167869
C       0.071872   -1.213414    1.968813
O      -1.230600   -1.682753    1.949322
N      -1.398758   -2.462048    3.093030
N      -0.351666   -2.483998    3.745210
O       0.627238   -1.730178    3.120508
H       1.041215    1.934920    0.095469
H      -0.448083    1.973686   -0.874523
H      -0.539145    1.913029    0.895616
H      -1.020941   -0.324819   -0.097898
H       1.824170   -0.165356   -1.227190
H       0.765945   -1.584078   -1.302154
H       0.326497   -0.108958   -2.183165
