19

O       0.177059    1.385537   -0.316835
C      -0.061422    0.014395   -0.025266
C       0.709632   -0.464649    1.217232
O      -0.017980   -0.298410    2.426052
C      -1.123526   -1.178252    2.486161
C      -2.107476   -0.920161    1.357810
O      -3.164295   -1.832091    1.283437
C      -2.436308    0.498335    1.036644
C      -1.549242   -0.306894    0.091398
H      -0.351744    1.908435    0.295230
H       0.349017   -0.520937   -0.889102
H       0.981041   -1.527224    1.095598
H       1.626967    0.120832    1.316955
H      -0.780705   -2.228759    2.437325
H      -1.604373   -1.025104    3.457201
H      -2.809779   -2.680005    0.991875
H      -3.443106    0.710681    0.698126
H      -1.985792    1.264444    1.660474
H      -2.041724   -0.600835   -0.829787
