22

C       0.086138    1.505837    0.103012
C      -0.111982   -0.002122   -0.078633
N       0.590732   -0.548673   -1.235294
C       2.029138   -0.775683   -1.177150
C       2.404451   -2.176332   -0.686487
C       3.907327   -2.426467   -0.802299
O       1.966020   -2.264290    0.670882
C      -0.069970   -0.879938   -2.376732
O       0.444112   -1.352949   -3.372434
H       1.141527    1.760370    0.241514
H      -0.283274    2.057264   -0.767092
H      -0.457147    1.853124    0.987653
H       0.218992   -0.546957    0.809294
H      -1.177629   -0.218679   -0.210483
H       2.426373   -0.636951   -2.185165
H       2.481686   -0.033140   -0.512051
H       1.862398   -2.903598   -1.307978
H       4.234676   -2.378533   -1.845709
H       4.467963   -1.686043   -0.222274
H       4.163145   -3.420250   -0.418640
H       2.093548   -3.170205    0.968528
H      -1.155496   -0.668453   -2.304043
