19

C       0.177413    1.484431    0.222850
C      -0.097226    0.019384   -0.144705
C       0.660682   -0.433581   -1.359872
C       0.450392   -0.066361   -2.822696
N       1.294173   -1.260392   -3.225063
C       2.660691   -0.839737   -2.713856
C       2.125764   -0.934010   -1.296545
C       1.024848   -1.820015   -1.807745
H       1.238135    1.641949    0.442842
H      -0.093266    2.154665   -0.599808
H      -0.400017    1.785721    1.102047
H       0.158241   -0.627615    0.704419
H      -1.172846   -0.119277   -0.317737
H      -0.582327   -0.228395   -3.146605
H       0.809236    0.895509   -3.208610
H       3.388480   -1.622273   -2.945446
H       3.016895    0.121148   -3.103928
H       2.652678   -0.997232   -0.351910
H       0.675962   -2.815954   -1.573110
