23

C       0.664602   -0.326309   -1.419807
C       0.028192    0.035671   -0.074069
C      -1.448411   -0.380074    0.036088
C      -1.679245   -1.914259   -0.037465
C      -2.864160   -2.211223    0.913448
C      -2.886614   -1.001482    1.813552
C      -2.127899   -0.009942    1.346813
C      -1.982132    1.352063    1.946767
O      -2.846569    1.484426    3.061934
H       1.705796    0.007572   -1.468290
H       0.654928   -1.407524   -1.591095
H       0.124516    0.144559   -2.249181
H       0.592041   -0.436017    0.742138
H       0.114579    1.119133    0.078255
H      -1.987594    0.118035   -0.787891
H      -1.851080   -2.269588   -1.056684
H      -0.781364   -2.422805    0.333818
H      -3.813337   -2.303956    0.365618
H      -2.737164   -3.153348    1.459411
H      -3.494229   -0.933052    2.707140
H      -0.931002    1.518537    2.239829
H      -2.205057    2.111854    1.174486
H      -2.666926    2.332004    3.477989
