18

C       0.032582    1.520663    0.138158
C       0.077204   -0.008525    0.096888
N       0.757448   -0.587027    1.238090
N       2.085545   -0.739337    1.272302
C       2.329210   -1.133503    2.518907
N       3.605801   -1.384691    3.030413
C       1.104024   -1.188502    3.219837
N       0.900808   -1.627652    4.531137
N       0.127156   -0.829000    2.392525
H       1.044850    1.933847    0.151621
H      -0.487490    1.906335   -0.744365
H      -0.496860    1.865853    1.030443
H      -0.932022   -0.427252    0.089016
H       0.604790   -0.357720   -0.794232
H       4.302593   -1.366943    2.295547
H       3.650634   -2.273379    3.517223
H       1.538568   -1.182877    5.182011
H      -0.054194   -1.466114    4.827065
