17

C       0.074283    1.347934   -0.172041
O       0.141938   -0.056152   -0.108754
C       0.492202   -0.526619    1.175188
C       0.547014   -2.028549    1.119110
N       1.842384   -2.634562    0.808767
C       1.261922   -2.832653    2.159503
C       1.941749   -2.234584    3.276894
C       2.482457   -1.753786    4.237076
H       1.042982    1.815056    0.065536
H      -0.206191    1.616413   -1.193450
H      -0.679758    1.753268    0.522102
H       1.469677   -0.134292    1.491671
H      -0.255766   -0.205695    1.921510
H      -0.345542   -2.485926    0.695669
H       1.721983   -3.482502    0.260715
H       0.827435   -3.806769    2.375254
H       2.971388   -1.325940    5.076927
