21

C       0.040250    1.553515    0.239874
C       0.110328    0.048011    0.059484
C       0.852467   -0.439936   -1.206658
C       1.569064   -1.730646   -0.739449
C       1.191917   -1.834570    0.757687
C       2.323875   -2.335897    1.660404
C       1.927026   -2.527849    3.049630
C       1.592520   -2.701594    4.190531
O       0.836952   -0.518151    1.145476
H       1.047568    1.981465    0.255229
H      -0.520586    2.010823   -0.581189
H      -0.456614    1.807714    1.180125
H      -0.911936   -0.369630    0.059136
H       0.164445   -0.612217   -2.038129
H       1.576958    0.313249   -1.530350
H       1.255120   -2.618487   -1.294032
H       2.653665   -1.639921   -0.853681
H       0.320583   -2.500033    0.875271
H       2.698476   -3.282871    1.251231
H       3.149239   -1.615396    1.600091
H       1.299249   -2.844670    5.200655
