22

C       0.480464    0.195070    1.625332
C       0.156298    0.003147    0.145632
N      -1.151361   -0.638232    0.003871
C      -1.632765   -1.270960   -1.203080
C      -0.588245   -2.109647   -1.944311
O       0.410659   -1.364503   -2.609067
C      -0.254303   -2.863676   -0.611878
C      -1.382794   -2.061665    0.074324
C      -2.345480   -2.621099    1.080699
H       1.420775    0.741865    1.746899
H      -0.315574    0.752832    2.127179
H       0.586490   -0.769685    2.133829
H       0.081787    0.975945   -0.353463
H       0.966745   -0.537335   -0.356590
H      -2.560680   -0.911803   -1.637821
H      -1.092196   -2.792804   -2.642523
H       0.999665   -1.981323   -3.055502
H      -0.460123   -3.935370   -0.671420
H       0.753084   -2.718600   -0.211596
H      -1.844280   -2.817685    2.036255
H      -3.154480   -1.910133    1.266462
H      -2.777160   -3.566311    0.733410
