21

C      -0.008991    1.452715   -0.098387
C       0.014419   -0.034896    0.054177
C      -1.000274   -0.893074    0.170227
C      -2.440608   -1.171879   -0.205697
C      -1.912411   -2.556930   -0.743403
C      -0.594846   -2.336277    0.076346
C       0.842172   -2.253757   -0.505411
O       0.878372   -2.304839   -1.922494
C       1.309837   -0.858201    0.021659
H       0.484485    1.948502    0.747899
H       0.529819    1.773902   -0.999356
H      -1.032365    1.834597   -0.155442
H      -3.102206   -1.304388    0.657378
H      -2.925826   -0.493422   -0.913087
H      -2.509409   -3.437957   -0.497975
H      -1.724871   -2.538819   -1.819087
H      -0.610697   -2.883809    1.026591
H       1.493111   -3.067920   -0.174983
H       0.388650   -1.539752   -2.246645
H       2.067832   -0.433733   -0.647204
H       1.773096   -0.941200    1.015063
