22

C      -0.391483    1.576179   -0.472672
C       0.010706    0.151203   -0.070546
C       0.950037   -0.486651   -1.074435
C       1.148698   -1.981719   -1.217926
C       0.421412   -3.004094   -0.367577
C       0.368138   -4.392264   -1.018140
N       0.469465   -1.202938   -2.236895
C      -0.792179   -1.311382   -2.759407
O      -1.590736   -0.407218   -2.872086
H       0.489824    2.217269   -0.586095
H      -0.933051    1.557980   -1.420912
H      -1.034228    2.026452    0.289706
H       0.520183    0.165975    0.902061
H      -0.887540   -0.460242    0.051678
H       1.829446    0.123290   -1.288065
H       2.148643   -2.302294   -1.515959
H       0.944672   -3.074986    0.594796
H      -0.592798   -2.657258   -0.146005
H      -0.192346   -4.372657   -1.958209
H       1.374410   -4.763385   -1.240252
H      -0.115867   -5.115360   -0.355241
H      -0.982795   -2.326970   -3.158159
