15

O      -0.005568    0.029913    0.297328
C       0.017057    1.191945    0.020649
O      -1.108828    1.908878   -0.275912
C      -0.785829    3.203009   -0.781074
C      -1.519080    3.663648   -2.004856
C      -1.828361    4.263699   -0.645645
C       0.681002    3.399305   -0.573064
O       1.058879    3.249742    0.795940
C       1.204162    2.119825   -0.082357
H      -0.979864    4.261740   -2.732112
H      -2.241830    2.973109   -2.423246
H      -2.755872    3.967126   -0.170264
H      -1.505025    5.275659   -0.429162
H       1.251389    4.105469   -1.167789
H       2.202872    1.726037   -0.228744
