16

O      -0.008269   -0.006275    0.026251
C      -0.036557    1.180416   -0.020255
C      -1.083024    2.302008    0.051976
C      -0.029357    3.011941    0.964094
C       1.027219    2.333423    0.021234
C       0.726340    3.021998   -1.337918
C      -0.842835    2.998941   -1.307114
C       2.396767    2.126297    0.406188
N       3.496665    1.950181    0.717094
H      -2.105248    2.115631    0.370785
H      -0.034508    4.103630    0.955942
H       0.003400    2.625678    1.983188
H       1.134427    4.034590   -1.361746
H       1.147755    2.463596   -2.176009
H      -1.269666    2.437847   -2.141229
H      -1.268930    4.004795   -1.318740
