20

C       0.061591    1.533727   -0.081211
C      -0.009227    0.021143    0.135950
O       0.502605   -0.352815    1.406150
C      -1.425396   -0.533605   -0.048289
C      -1.560837   -2.067680    0.123394
N      -2.596049   -2.250991    1.149290
C      -2.892054   -1.094419    1.575938
C      -3.870298   -0.762184    2.649953
O      -2.266439   -0.010223    1.015412
H       1.080914    1.888038    0.091148
H      -0.232765    1.800574   -1.101781
H      -0.610634    2.052721    0.609990
H       0.636428   -0.481681   -0.595195
H      -0.098781    0.019913    2.062216
H      -1.843948   -0.182815   -0.999015
H      -1.851553   -2.567794   -0.804974
H      -0.622073   -2.513960    0.470171
H      -4.311983   -1.679321    3.037780
H      -3.375207   -0.222128    3.463514
H      -4.657148   -0.109471    2.259125
