18

C       0.017178    1.621634   -0.001714
C      -0.007160    0.087960   -0.068731
O       0.626774   -0.379933   -1.251457
C       0.630719   -0.531895    1.144003
C       0.097490   -1.121191    2.269833
C      -1.299629   -1.372701    2.726542
N       1.201382   -1.476318    2.980689
N       2.342242   -1.145490    2.348492
N       1.992883   -0.569212    1.237301
H       1.047606    1.976043    0.099922
H      -0.409508    2.037181   -0.918552
H      -0.557015    1.990273    0.855173
H      -1.049490   -0.247356   -0.136674
H       1.574548   -0.388056   -1.066788
H      -1.438547   -2.410386    3.048240
H      -1.579896   -0.723687    3.564100
H      -1.999990   -1.181030    1.910803
H       1.253661   -1.947873    3.870141
