17

C      -0.306873    1.565818   -0.080122
C      -0.005553    0.111422    0.019380
C       0.671717   -0.870992   -0.861625
C       1.461470   -1.487039    0.306041
C       2.759464   -0.854602    0.482988
N       3.790840   -0.350765    0.623016
C       0.343473   -0.875410    1.213000
C      -0.887856   -1.664113    0.749906
N      -0.802297   -0.995957   -0.589091
H       0.566951    2.166203    0.192730
H      -0.591201    1.815382   -1.106704
H      -1.134706    1.848029    0.579345
H       0.977974   -0.791264   -1.895698
H       1.573894   -2.576290    0.338103
H       0.557697   -0.633849    2.251524
H      -0.833358   -2.758937    0.737421
H      -1.812902   -1.345653    1.235851
