19

C       0.000632    1.520161   -0.005557
C       0.024122    0.013218   -0.001458
C       0.008533   -0.703257   -1.196057
C       0.046109   -2.101121   -1.230682
N       0.101424   -2.792478   -2.456148
C       0.096668   -2.783188   -0.012665
C       0.103343   -2.083177    1.187982
C       0.069354   -0.687502    1.218229
N       0.149544    0.013039    2.439790
H       0.841977    1.932833    0.563923
H       0.052666    1.914022   -1.023527
H      -0.916687    1.919940    0.450229
H      -0.024726   -0.153165   -2.133594
H      -0.338119   -2.293920   -3.218140
H      -0.269334   -3.731666   -2.402643
H       0.128491   -3.868897   -0.002553
H       0.136399   -2.633345    2.124812
H      -0.089216   -0.561476    3.237105
H      -0.398276    0.863105    2.458992
