13

C      -0.039703    1.509550   -0.041122
C      -0.030236   -0.003353   -0.064984
C      -1.246132   -0.683566    0.525312
C       0.789372   -0.711292   -1.060276
O       1.225468   -0.600590    0.297123
H       0.889928    1.909485   -0.452966
H      -0.879527    1.903501   -0.623766
H      -0.144486    1.875906    0.986044
H      -2.152187   -0.410126   -0.026295
H      -1.134126   -1.770054    0.497470
H      -1.385866   -0.380555    1.568828
H       0.507127   -1.713869   -1.380850
H       1.370881   -0.143693   -1.786409
