22

C      -0.061632    1.583159    0.104235
C       0.030368    0.045502    0.065569
C       0.708275   -0.475435    1.347528
C      -1.394459   -0.534690   -0.012752
O      -2.136466   -0.123856    1.127430
C       0.769640   -0.443047   -1.201145
C       2.219095    0.005076   -1.357261
O       2.695487   -0.553293   -2.576266
H       0.919712    2.044092    0.251236
H      -0.479993    1.975237   -0.830112
H      -0.710734    1.902382    0.922912
H       0.092858   -0.245829    2.220461
H       0.842951   -1.562608    1.306642
H       1.692255   -0.021477    1.498539
H      -1.876554   -0.184550   -0.939728
H      -1.334519   -1.633785   -0.064765
H      -3.020629   -0.494108    1.060357
H       0.761020   -1.540319   -1.227731
H       0.224915   -0.107749   -2.093131
H       2.282238    1.103361   -1.379291
H       2.823260   -0.342199   -0.505735
H       3.610040   -0.280026   -2.692001
