17

O       0.014786    0.024730    0.081927
C      -0.020125    1.216160    0.011420
C      -1.081189    2.321998    0.037198
C      -0.033785    3.033392    1.014788
C       1.007935    2.350688    0.067634
C       2.397917    2.102469   -0.529596
O       1.813909    2.306080   -1.861812
C       0.731653    3.059417   -1.244002
C      -0.806689    2.888499   -1.398751
H      -2.109600    2.145243    0.344415
H      -0.017252    4.124824    1.018748
H      -0.105378    2.638904    2.029170
H       3.158804    2.861413   -0.312547
H       2.803685    1.094647   -0.411982
H       1.010018    4.122259   -1.234695
H      -1.101195    2.170205   -2.168753
H      -1.306108    3.839089   -1.599028
