19

O       0.213114    1.364601   -0.052635
C       0.078046   -0.043500    0.030816
C      -1.375099   -0.506928   -0.102017
C      -1.500291   -2.020373   -0.064039
N      -1.160450   -2.663796    1.228728
C      -2.284011   -3.613892    1.105868
C      -2.919436   -2.688757    0.021618
C      -3.987162   -1.830524    0.506490
N      -4.841125   -1.150627    0.888215
H      -0.266806    1.749863    0.687679
H       0.679700   -0.445505   -0.793036
H       0.504364   -0.433114    0.968455
H      -1.969750   -0.080700    0.714722
H      -1.787271   -0.125173   -1.043922
H      -0.963838   -2.461635   -0.918866
H      -0.239312   -3.083775    1.282213
H      -2.023742   -4.592353    0.680657
H      -2.858942   -3.762994    2.023538
H      -3.250341   -3.189255   -0.889514
