18

C       0.082252    0.722020    0.520150
O      -0.435019    0.176790   -0.692849
C       0.504317   -0.521881   -1.482086
C       0.577819   -2.003148   -1.071241
O      -0.709448   -2.499746   -0.854196
C       1.440401   -2.900941   -1.985599
O       2.400787   -3.104190   -0.902449
C       1.637535   -2.374484   -0.019300
N       1.800781   -2.139937    1.201340
H       0.456659   -0.055320    1.194754
H       0.893131    1.432361    0.306609
H      -0.743552    1.259328    0.991725
H       0.128264   -0.477941   -2.511055
H       1.495984   -0.049853   -1.450809
H      -1.225497   -1.749082   -0.523766
H       0.951435   -3.835658   -2.265825
H       1.914629   -2.427318   -2.849524
H       2.638832   -2.594561    1.567706
