19

O       0.113163    1.394514   -0.110843
C       0.065254   -0.002787    0.097021
C      -1.368800   -0.554350    0.003814
C      -2.060787   -0.519596   -1.418134
C      -2.249562   -2.039351   -1.350037
C      -0.921972   -2.723370   -1.216094
C      -1.541354   -2.093622    0.003480
C      -2.186000    0.090959    1.022602
C      -2.816596    0.656490    1.878202
H      -0.472603    1.796341    0.542427
H       0.685629   -0.446561   -0.686094
H       0.496371   -0.289063    1.069299
H      -2.994166    0.042869   -1.402181
H      -1.430348   -0.143609   -2.229531
H      -3.139378   -2.569454   -1.664677
H      -0.952620   -3.808356   -1.219471
H      -0.034919   -2.308213   -1.686574
H      -1.788885   -2.670027    0.885897
H      -3.393949    1.137064    2.628954
