17

C      -0.350758    1.526309   -0.058450
C       0.161563    0.101187   -0.044380
O       1.466631   -0.035611   -0.653934
C       1.908801   -0.916667    0.398660
C       0.674239   -0.575673    1.259152
C       0.955640    0.361374    2.442637
C       1.645899   -0.333067    3.528433
N       2.192570   -0.901962    4.372759
H       0.335443    2.213521    0.443429
H      -0.461241    1.862269   -1.093980
H      -1.332860    1.589819    0.422556
H      -0.563263   -0.551422   -0.554473
H       1.953641   -1.962486    0.069149
H       2.886946   -0.626490    0.798628
H       0.084107   -1.428773    1.598511
H       1.577102    1.205278    2.123572
H       0.022609    0.781923    2.834629
