13

N       0.007871    1.400364    0.146535
C      -0.078145    0.022148    0.045135
C      -1.224098   -0.716848    0.021765
C      -1.179482   -2.146108   -0.016945
C       0.032080   -2.723428   -0.029805
F       0.253591   -4.019363   -0.059407
O       1.179808   -2.044666   -0.018309
C       1.218312   -0.650650    0.008199
O       2.292710   -0.105900   -0.009057
H       0.918257    1.757521   -0.109422
H      -0.762538    1.926817   -0.235411
H      -2.189625   -0.222340    0.038962
H      -2.072493   -2.753163   -0.032162
