20

C      -1.457564   -0.629827    2.434055
C      -0.473059   -1.706012    2.040909
N       0.268099   -1.517962    0.784828
C       1.011595   -1.549617    2.061633
C       1.703008   -0.289341    2.473438
C       2.644046   -0.293351    3.633337
N       3.141321   -0.073047    2.282870
C       3.962118   -1.111252    1.678777
H      -1.107307    0.359707    2.134173
H      -2.421958   -0.801533    1.943906
H      -1.625738   -0.628599    3.516448
H      -0.820999   -2.716791    2.255476
H       0.374149   -2.397411    0.287027
H       1.561342   -2.461183    2.286487
H       1.123471    0.610646    2.285703
H       2.697581    0.551813    4.315195
H       2.845298   -1.260008    4.097396
H       3.756989   -2.132772    2.037053
H       3.825964   -1.094196    0.592874
H       5.013144   -0.891949    1.893258
