20

C       0.011407    1.387072    0.002182
N      -0.118933   -0.053818    0.048490
C       0.548523   -0.667209    0.918858
O       0.486235   -2.011917    1.011751
C       1.231176   -2.605020    2.073507
C       1.195594   -4.127226    1.870787
C       1.855014   -4.543935    0.542100
C       1.822005   -4.781188    3.017487
C       2.359062   -5.301163    3.958733
H       0.695758    1.801464    0.760992
H       0.371038    1.692297   -0.987148
H      -0.972760    1.849674    0.138381
H       1.220435   -0.190650    1.650547
H       2.270021   -2.248940    2.061533
H       0.786240   -2.343149    3.041206
H       0.136730   -4.416260    1.837410
H       1.369235   -4.030327   -0.290003
H       2.918527   -4.285516    0.543526
H       1.768662   -5.622819    0.393579
H       2.822410   -5.773052    4.789619
