12

N       0.042570    1.318671   -0.058735
C      -0.055624   -0.024720   -0.023114
N      -1.218819   -0.614470   -0.007256
C      -1.169094   -1.976105   -0.002785
C      -0.027877   -2.718257   -0.009713
C       1.248134   -2.066634   -0.019662
O       2.359585   -2.507577   -0.022122
O       1.136643   -0.626647   -0.025641
H       0.939464    1.755544    0.059660
H      -0.799849    1.855257    0.051228
H      -2.138057   -2.468657    0.008315
H      -0.035230   -3.798996   -0.004729
