19

C      -0.020555    1.546231   -0.063479
C       1.463455    2.026434    0.076030
C       1.921691    0.895250    0.974866
O       2.891085    0.801715    2.002480
C       1.497225    0.937358    2.378534
C       0.613742   -0.265814    2.681644
C       0.354667   -0.851285    1.292521
C       0.036013   -0.002684    0.032630
C       1.442074   -0.409408    0.357454
H      -0.640165    1.995095    0.720349
H      -0.454829    1.838332   -1.023541
H       1.967141    2.032336   -0.896534
H       1.559687    3.016753    0.527237
H       1.281803    1.887765    2.860846
H       1.101886   -1.011165    3.320762
H      -0.291998    0.066127    3.202393
H      -0.019248   -1.870102    1.232903
H      -0.525159   -0.552099   -0.715664
H       2.091989   -1.047635   -0.228932
