21

C       0.806679   -0.440621    1.335688
C      -0.017620   -0.045296    0.106873
C       0.692059   -0.355651   -1.221740
C       0.928943   -1.874581   -1.472620
C       0.706215   -2.106967   -2.988913
C      -0.067675   -0.890773   -3.410389
C      -0.072918    0.064228   -2.467818
C      -0.666416    1.384432   -2.698630
O      -0.603949    2.326280   -1.937362
H       1.017334   -1.515279    1.359014
H       1.768054    0.085529    1.350260
H       0.277538   -0.188352    2.259715
H      -0.982643   -0.570112    0.122867
H      -0.241600    1.024134    0.138402
H       1.653463    0.179889   -1.215166
H       1.912465   -2.211051   -1.137663
H       0.184257   -2.446166   -0.907271
H       1.653641   -2.153881   -3.545360
H       0.182172   -3.043749   -3.209677
H      -0.523880   -0.785612   -4.390475
H      -1.194273    1.477624   -3.675218
