18

N      -0.110691    1.322251    0.100633
C       0.003276    0.071281   -0.051950
C      -1.239771   -0.800196   -0.039665
C      -1.452834   -1.641775   -1.300538
O      -2.241430   -1.309094   -2.150257
C      -0.648787   -2.931788   -1.414662
C       0.713260   -2.904105   -0.706490
C       1.517277   -1.627542   -0.969763
O       1.232209   -0.526674   -0.095787
H       0.816519    1.753857    0.096535
H      -1.177263   -1.467377    0.829467
H      -2.092201   -0.132471    0.071734
H      -1.273120   -3.736018   -1.002545
H      -0.537615   -3.146392   -2.481964
H       0.609048   -3.031234    0.376670
H       1.306097   -3.755262   -1.058102
H       2.580200   -1.813635   -0.801053
H       1.398369   -1.304557   -2.013885
