11

O       0.101495    1.337261   -0.088809
C       0.069103   -0.006479   -0.045701
C      -0.007414   -0.729350   -1.248431
N      -0.041333   -2.053270   -1.247504
C       0.000488   -2.663953   -0.054754
C       0.075973   -1.940623    1.126451
N       0.110796   -0.602587    1.136697
H       0.153480    1.640124    0.828849
H      -0.040005   -0.209415   -2.201289
H      -0.027115   -3.748928   -0.050030
H       0.109727   -2.438455    2.091759
