18

O      -0.105498    1.362312   -0.037299
N       0.047066   -0.028763    0.098775
C      -1.064695   -0.615934   -0.007648
C      -2.510360   -0.273569   -0.255418
O      -2.833562   -1.683739   -0.248443
C      -1.456165   -2.079189    0.037490
C      -0.873479   -3.011813   -0.980370
C       0.290641   -3.892053   -0.592535
C      -1.066331   -4.500446   -0.821264
H       0.799265    1.678348    0.060468
H      -3.007234    0.282419    0.550201
H      -2.733022    0.210627   -1.214537
H      -1.383793   -2.522964    1.041843
H      -0.877754   -2.621853   -1.993496
H       1.066985   -4.054824   -1.330938
H       0.656661   -3.828069    0.426734
H      -1.623026   -4.847995    0.042628
H      -1.227765   -5.086708   -1.718498
