22

C      -0.024748    1.572209    0.085025
C      -0.005525    0.042168    0.185939
C      -1.395840   -0.575072    0.055352
C      -2.051646   -0.644398   -1.365900
C      -1.238277   -1.951924   -1.588696
C      -1.497748   -2.131210   -0.064570
C      -3.024912   -2.341302   -0.034380
C      -3.448524   -1.203247   -1.028383
H       0.978024    1.991649    0.213699
H      -0.401359    1.902215   -0.888854
H      -0.670408    2.011395    0.853866
H       0.679055   -0.360842   -0.568492
H       0.413809   -0.249446    1.158253
H      -2.042744   -0.137537    0.828380
H      -2.004886    0.190730   -2.066639
H      -1.657225   -2.701296   -2.267958
H      -0.191052   -1.780457   -1.837771
H      -0.886981   -2.793596    0.551535
H      -3.315676   -3.335774   -0.385412
H      -3.444229   -2.202839    0.966535
H      -4.093825   -0.454393   -0.559641
H      -3.967280   -1.587622   -1.911518
