19

C       0.129681    1.459741    0.005674
C      -0.053946   -0.014191   -0.010645
C      -1.151032   -0.822012   -0.021928
N      -2.524085   -0.508968    0.023531
C      -0.664445   -2.177062   -0.005959
N      -1.522940   -3.291795   -0.081621
C       0.695775   -2.102100    0.015990
C       1.775565   -3.122158    0.016746
O       1.080041   -0.785437    0.012932
H       0.879434    1.771988   -0.729956
H      -0.810086    1.962617   -0.243513
H       0.455214    1.836551    0.984238
H      -2.700324    0.480950   -0.096913
H      -3.036863   -1.018440   -0.689649
H      -2.259277   -3.231487    0.615014
H      -1.031767   -4.168628    0.042555
H       2.289693   -3.197375   -0.950498
H       2.534810   -2.892250    0.772699
H       1.364919   -4.110149    0.247795
