15

O       0.729997   -0.090956   -0.697135
C      -0.177812    0.283944    0.334383
C      -1.547438   -0.396734    0.202389
C      -2.057167   -0.837722   -1.176564
C      -1.595920   -1.877251   -0.201108
O      -0.431680   -2.602505   -0.364149
C      -2.512274    0.074201    1.155421
N      -3.277646    0.459889    1.933979
H       0.547204    0.441173   -1.477657
H       0.287600   -0.028136    1.273877
H      -0.304194    1.372478    0.369065
H      -3.116296   -0.730970   -1.379439
H      -1.407357   -0.626717   -2.019009
H      -2.358448   -2.480314    0.279701
H       0.248867   -2.002843   -0.705575
