19

C      -0.053837    1.491631   -0.012898
C       0.029296   -0.007505    0.044591
C      -0.797733   -0.834060    0.997021
C       0.718510   -0.833227    1.102889
C       1.548827   -1.864440    0.356442
O       2.858582   -2.056678    0.793457
C       0.854801   -2.935360   -0.460385
C       1.260083   -1.614278   -1.092716
O       0.309000   -0.590226   -1.221531
H       0.885866    1.920237   -0.375322
H      -0.855384    1.807407   -0.689082
H      -0.265921    1.902708    0.978145
H      -1.336280   -0.297498    1.772030
H      -1.314961   -1.711084    0.626789
H       1.197365   -0.384032    1.964888
H       2.843115   -2.722613    1.489645
H       1.475559   -3.781940   -0.737061
H      -0.191667   -3.167310   -0.303675
H       2.024206   -1.603587   -1.862256
