17

O       0.057505    1.167547    0.676627
C      -0.053797   -0.210242    0.347129
C      -1.430440   -0.539755   -0.252532
C      -1.663548   -2.048546   -0.383217
C      -2.388697   -2.427819    0.911516
O      -2.573845   -3.540126    1.327595
C      -2.824597   -1.127335    1.589232
N      -2.549678   -0.090114    0.596489
H       0.071181    1.668690   -0.145863
H       0.745138   -0.528452   -0.340523
H       0.092486   -0.751121    1.289526
H      -1.503877   -0.034408   -1.225243
H      -2.331920   -2.277878   -1.220514
H      -0.756477   -2.644374   -0.512914
H      -3.885834   -1.173162    1.857340
H      -2.257722   -1.038666    2.531719
H      -2.314085    0.800277    1.020988
