14

C      -0.051902    1.486804    0.022162
C      -0.010449   -0.012160    0.007578
N      -0.010160   -0.632984   -1.118817
C       0.013008   -2.031071   -1.129378
O       0.020237   -2.692857   -2.124957
O       0.022780   -2.698549    0.088248
N       0.058432   -2.043748    1.308845
C       0.021035   -0.752422    1.272335
N      -0.070006   -0.070534    2.474114
H       0.863591    1.897351    0.467344
H      -0.141681    1.857323   -0.998542
H      -0.893644    1.841200    0.626504
H       0.059760   -0.673190    3.277116
H       0.471446    0.779488    2.537805
