19

C      -0.034357    1.550191   -0.222677
C       1.469514    1.599888    0.250896
C       1.289242    0.157510    0.759876
O       0.587913    0.077485    2.023662
C      -0.336512   -0.767415    1.264815
C       0.553087   -2.021604    1.055756
C       1.619772   -1.287368    0.194536
C       0.757485   -0.912638   -1.045787
C      -0.004479    0.002608   -0.051022
H      -0.713425    2.048005    0.471179
H      -0.237027    1.909791   -1.233708
H       2.181124    1.684014   -0.573701
H       1.728304    2.330857    1.019087
H      -1.319152   -0.877659    1.726495
H       0.921637   -2.374544    2.020577
H       0.077974   -2.843525    0.513013
H       2.611169   -1.734207    0.122917
H       1.297636   -0.316024   -1.785342
H       0.225991   -1.720870   -1.556303
