17

C      -0.078800    1.560522   -0.009008
C       0.031666    0.025693   -0.009984
C       0.731302   -0.511125    1.215502
C       2.102518   -0.785234    1.206859
N       2.796038   -1.232086    2.255595
C       2.123815   -1.431352    3.391924
C       0.757223   -1.199842    3.521634
C       0.055392   -0.733715    2.416338
H       0.912299    2.023513    0.025361
H      -0.590390    1.915574   -0.908981
H      -0.639779    1.914007    0.862146
H      -0.972388   -0.409310   -0.077526
H       0.572237   -0.297316   -0.906883
H       2.670937   -0.636884    0.289413
H       2.703872   -1.796596    4.236195
H       0.257045   -1.385809    4.465904
H      -1.013251   -0.547397    2.481324
