19

O       0.007447    1.363237    0.695504
N       0.069136   -0.036735    0.553917
C      -0.961786   -0.519566   -0.059043
C      -0.920338   -2.024607   -0.189029
C      -1.312974   -2.570822   -1.568103
C      -2.817976   -2.523410   -1.834434
N      -3.334892   -1.192760   -2.106680
C      -3.059221   -0.047345   -1.410042
C      -2.068380    0.276895   -0.544755
H       0.820357    1.544712    1.176961
H       0.091018   -2.343830    0.074431
H      -1.594975   -2.466248    0.558995
H      -0.774946   -2.044080   -2.364339
H      -1.012120   -3.623135   -1.621072
H      -3.055795   -3.136976   -2.709987
H      -3.336821   -2.978605   -0.973185
H      -4.218524   -1.182896   -2.588198
H      -3.755413    0.747997   -1.666085
H      -2.064820    1.307410   -0.216646
