19

O      -0.094189    1.484542   -0.072911
C       0.020912    0.082321    0.035958
C       0.273860   -0.545377    1.458768
C      -1.063542   -1.298180    1.340841
C      -2.190102   -0.330955    1.151550
C      -1.319289   -0.653018   -0.039491
C      -1.730164   -1.769693   -0.926922
C      -1.758439   -2.928838   -0.252222
C      -1.302036   -2.795921    1.200258
H       0.780611    1.867634    0.049638
H       0.731409   -0.316317   -0.700283
H       1.146189   -1.203894    1.477980
H       0.347584    0.171051    2.284232
H      -3.191028   -0.745608    1.111884
H      -2.121352    0.656511    1.598101
H      -1.999993   -1.655999   -1.971570
H      -2.099329   -3.874590   -0.663219
H      -0.385170   -3.373054    1.383628
H      -2.051481   -3.186601    1.900420
