18

C      -0.180100    1.554909    0.074094
C       0.056331    0.048054    0.005256
O       0.792138   -0.315147   -1.174818
C       2.205314   -0.421628   -1.019038
C       2.552175   -0.894267    0.385538
C       1.455659   -1.840591    0.916833
C       0.780675   -0.493144    1.239785
O       2.091945    0.143893    1.302948
H       0.760670    2.080940    0.253003
H      -0.614775    1.907952   -0.864404
H      -0.870803    1.800016    0.888608
H      -0.905437   -0.473093   -0.094879
H       2.545337   -1.134841   -1.779268
H       2.701900    0.543578   -1.199227
H       3.610371   -1.135844    0.515410
H       0.962927   -2.512164    0.212239
H       1.770682   -2.369503    1.816633
H       0.206278   -0.366568    2.161444
