23

C       0.230414    1.486293    0.157737
C      -0.078383   -0.003823   -0.014323
O       0.346597   -0.729457    1.157591
C      -1.598335   -0.246862   -0.052713
O      -2.222912    0.153872    1.149635
C       0.587976   -0.572251   -1.271762
C       2.142117   -0.618563   -1.354971
C       2.024092   -1.998184   -2.055914
C       0.574670   -2.109050   -1.513508
H       1.304282    1.648874    0.307956
H      -0.065929    2.051247   -0.731608
H      -0.315505    1.884918    1.015852
H       1.166611   -0.339725    1.474550
H      -2.048661    0.335544   -0.863091
H      -1.781540   -1.312435   -0.259387
H      -1.691555   -0.247877    1.849028
H       0.185879   -0.046243   -2.145868
H       2.652692    0.187853   -1.886914
H       2.590571   -0.719499   -0.360965
H       2.044410   -1.899175   -3.145073
H       2.735364   -2.774935   -1.765783
H       0.540328   -2.643264   -0.560586
H      -0.189539   -2.516219   -2.179663
