14

O       0.077458    1.386953    0.239138
C       0.091518   -0.006065    0.096424
C      -1.302615   -0.668872    0.145093
C      -2.490524    0.286807    0.198123
C      -3.767025   -0.407591    0.048334
N      -4.774203   -0.962686   -0.057411
O      -1.090954   -1.213891   -1.201401
C       0.112512   -0.567189   -1.339139
O       0.819695   -0.513898   -2.290585
H       0.886620    1.741236   -0.146614
H       0.828524   -0.492366    0.749199
H      -1.410362   -1.487012    0.859077
H      -2.476498    0.812320    1.159563
H      -2.387683    1.048345   -0.579577
