18

C      -0.066488    1.376061    0.033666
O      -0.050488   -0.039027    0.025178
C       0.616510   -0.608751    1.055061
C       1.262731   -0.035926    2.107102
O       1.794377   -1.042844    2.895598
C       1.474685   -2.218846    2.309605
N       1.976621   -3.360989    2.926892
C       0.752319   -2.038033    1.167096
C       0.231700   -3.068790    0.216826
H       0.952824    1.782389   -0.016401
H      -0.629299    1.692713   -0.845807
H      -0.555667    1.759142    0.939668
H       1.453781    0.969009    2.433227
H       2.343134   -3.152555    3.846840
H       1.299993   -4.110859    2.983839
H      -0.839595   -3.265901    0.351887
H       0.365118   -2.744859   -0.820337
H       0.763460   -4.017782    0.339593
