21

C       0.514823    0.751031    0.171762
C      -0.064291   -0.656693    0.364469
N      -1.468178   -0.689617    0.027817
C      -1.997180   -1.256391   -0.989418
N      -3.352698   -1.200320   -1.169726
C      -4.223249   -0.674527   -0.143781
C      -1.361633   -2.049248   -2.151844
C       0.080971   -1.840850   -2.555614
O      -2.065016   -2.819051   -2.772256
H       1.545339    0.800137    0.538049
H       0.512184    1.041443   -0.884397
H      -0.086643    1.483131    0.717808
H       0.559593   -1.389103   -0.163274
H       0.012513   -0.911720    1.429918
H      -3.713264   -1.868078   -1.833040
H      -5.255002   -0.716569   -0.499651
H      -4.140352   -1.234162    0.797992
H      -3.962596    0.364871    0.075552
H       0.737391   -2.465976   -1.940505
H       0.189714   -2.155448   -3.595291
H       0.399024   -0.803702   -2.433892
