21

O       0.185758    1.528032    0.031884
C       0.007563    0.138594   -0.031906
C       0.618743   -0.455378   -1.314175
C      -0.008602    0.133609   -2.584187
C       0.617857   -0.407274   -3.851464
C       0.155402   -1.720118   -4.435296
C      -0.155724   -0.423672   -5.143941
C       0.604777   -0.523211    1.191528
O       1.160648    0.112721    2.054817
H       0.658399    1.692184    0.863311
H      -1.071751   -0.107945   -0.022749
H       1.697884   -0.256031   -1.306552
H       0.490310   -1.545631   -1.306075
H      -1.085753   -0.083510   -2.589465
H       0.088287    1.224262   -2.549011
H       1.682082   -0.201803   -3.943763
H       0.890912   -2.385284   -4.874141
H      -0.664191   -2.232517   -3.940727
H      -1.181405   -0.069747   -5.123909
H       0.370793   -0.200454   -6.065255
H       0.510005   -1.627176    1.249500
