17

O       0.138490    1.378594   -0.095783
C       0.035487    0.000419    0.015216
C       0.189619   -0.686789    1.416776
O      -0.476033    0.127480    2.389359
C      -1.873898    0.153734    2.189618
O      -2.226841    0.185797    0.819654
C      -1.381468   -0.656870    0.021500
C      -0.766533   -1.797586    0.876728
O      -0.129469   -2.712969    0.011465
H      -0.555530    1.755624    0.458565
H       0.689420   -0.458507   -0.725037
H       1.171326   -0.945764    1.818531
H      -2.343739   -0.713571    2.676222
H      -2.254081    1.071784    2.645727
H      -1.912769   -0.892339   -0.900783
H      -1.415820   -2.307208    1.595917
H       0.446088   -3.275091    0.540686
