21

C      -0.145890    1.541611    0.096550
C       0.040098    0.016073    0.003535
C       0.759454   -0.431693   -1.243539
C       2.028438   -0.851474   -1.252528
C       2.700895   -1.296555   -2.494430
C       2.055038   -2.427189   -3.310386
C       1.943196   -1.001449   -3.763382
O       0.767200   -0.253958   -3.704070
C      -0.026698   -0.410020   -2.535106
H       0.823498    2.048696    0.112725
H      -0.711816    1.935116   -0.753713
H      -0.688815    1.811303    1.007923
H       0.595827   -0.333644    0.880576
H      -0.947314   -0.465499    0.052848
H       2.601865   -0.870964   -0.328568
H       3.783782   -1.232163   -2.510495
H       2.704291   -3.087010   -3.876242
H       1.194807   -2.914553   -2.865997
H       2.501988   -0.703376   -4.643591
H      -0.645673   -1.321569   -2.614084
H      -0.722864    0.435258   -2.550372
