20

C       0.274990    1.475613   -0.264944
C      -0.140218    0.053229    0.132349
C       0.572545   -0.480856    1.348028
C       0.719921    0.247046    2.678731
C       2.077471   -0.516704    2.829415
C       1.822656   -1.809684    3.563276
C       1.124155   -2.604573    2.751520
C       1.000603   -1.930888    1.430616
N       2.033923   -0.868560    1.334645
H       1.358791    1.533728   -0.404141
H      -0.205479    1.771782   -1.202290
H      -0.009601    2.209028    0.496034
H      -1.223050    0.015823    0.314752
H       0.052986   -0.626459   -0.706075
H       0.889518    1.312433    2.511264
H      -0.040210    0.112862    3.454489
H       2.951991    0.062114    3.123352
H       2.043795   -1.967816    4.611112
H       0.688323   -3.568171    2.980201
H       0.861092   -2.517826    0.527179
