14

N      -0.044043    1.259609   -0.275213
C      -0.042439    0.027037   -0.050274
O       1.089768   -0.732305    0.182747
C       0.805649   -2.089547    0.194143
O       1.646238   -2.901226    0.413471
C      -0.663107   -2.283160   -0.142721
C      -1.277834   -0.875257    0.011328
C      -1.984848   -0.704457    1.276039
C      -2.558393   -0.592418    2.324998
H       0.902050    1.643452   -0.259451
H      -0.725648   -2.640225   -1.175620
H      -1.106889   -3.038294    0.504684
H      -1.939704   -0.613418   -0.818031
H      -3.069344   -0.476699    3.249102
