17

C      -0.094635    1.489978    0.038055
C       0.028718   -0.019120    0.038146
C      -1.295182   -0.774604   -0.134747
O      -1.193278   -1.984515    0.629715
C      -0.110361   -1.986204    1.456203
O       0.095858   -2.866915    2.238749
C       0.746377   -0.760682    1.183477
C       1.847803   -1.029327    0.135527
O       1.023834   -0.482618   -0.915882
H       0.884263    1.955965    0.177953
H      -0.498262    1.835695   -0.919641
H      -0.762312    1.830877    0.835746
H      -2.150521   -0.201335    0.239670
H      -1.461660   -1.036071   -1.182712
H       1.025270   -0.243976    2.100224
H       2.760072   -0.440462    0.287990
H       2.115625   -2.076201   -0.038536
