21

C      -0.226004    1.661675   -0.092675
C       0.008019    0.165142    0.036742
C       1.225589   -0.570776   -0.612813
C       1.490929   -0.891117   -2.050237
C       2.171681    0.020761    0.463807
C       0.879371   -0.475248    1.156219
C       0.612274   -0.724334    2.611260
O       1.601545   -1.569691    3.168496
O       0.958362   -1.707054    0.316783
H       0.679133    2.255567    0.057115
H      -0.619007    1.900810   -1.086991
H      -0.969071    1.999513    0.637800
H      -0.914487   -0.403748   -0.114372
H       1.658936    0.029358   -2.618543
H       2.379577   -1.522323   -2.147057
H       0.639551   -1.419269   -2.490440
H       3.058491   -0.578360    0.672190
H       2.385558    1.091024    0.451246
H       0.640109    0.218454    3.168462
H      -0.398048   -1.151090    2.720940
H       1.703652   -2.304572    2.551479
