19

O      -0.079218    1.401902   -0.008372
C       0.031681   -0.023450    0.038106
C      -1.410835   -0.558805    0.052983
C      -1.454533   -2.091442    0.071154
C      -0.485857   -2.697753   -0.908350
C       0.498003   -2.010515   -1.485712
C       0.759556   -0.550093   -1.222838
C       0.754274   -0.426324    1.254275
C       1.367042   -0.720874    2.246246
H       0.798667    1.769022    0.143031
H      -1.937088   -0.135624    0.912496
H      -1.897144   -0.176529   -0.851411
H      -1.230998   -2.461532    1.081637
H      -2.473860   -2.430973   -0.149788
H      -0.607438   -3.754690   -1.132579
H       1.164994   -2.504244   -2.188017
H       0.417263    0.063349   -2.067010
H       1.837252   -0.369143   -1.126712
H       1.902260   -0.984502    3.125038
