20

C      -0.175892    1.554851    0.013465
C       0.023744    0.040938    0.004386
C       0.894672   -0.496164   -1.182539
C       1.996479   -1.347692   -0.474171
C       1.206709   -1.926002    0.717588
C       0.798651   -0.530593    1.229824
N       2.126826    0.088661    1.314023
C       2.885816   -0.311359    0.228467
O       3.964388    0.123549   -0.103723
H       0.782874    2.083386    0.039771
H      -0.704817    1.883384   -0.886865
H      -0.765618    1.876290    0.879470
H      -0.961400   -0.439343   -0.017924
H       0.307849   -1.124408   -1.858235
H       1.330327    0.310725   -1.778412
H       2.549092   -2.026740   -1.119853
H       0.352372   -2.538549    0.417464
H       1.824603   -2.473768    1.432589
H       0.266529   -0.483666    2.180935
H       2.298604    0.982002    1.749197
