18

C      -0.033970    1.517927   -0.022643
C      -0.011910   -0.000891    0.008959
C      -1.383089   -0.694361   -0.074991
C      -1.171569   -1.990286    0.728496
O      -0.259693   -1.639865    1.771491
C       0.666789   -0.743480    1.219648
C       1.658957   -1.329688    0.155043
O       2.583011   -2.096470    0.149808
N       1.027815   -0.618010   -0.837976
H       0.971980    1.923875    0.118882
H      -0.415028    1.889230   -0.980798
H      -0.682619    1.911192    0.766115
H      -2.138655   -0.067998    0.409709
H      -1.701782   -0.880931   -1.104117
H      -2.079434   -2.375207    1.197096
H      -0.744210   -2.780540    0.094984
H       1.121138   -0.150234    2.014446
H       1.172830   -0.602491   -1.837865
