21

C       0.042665    1.441799   -0.023824
C      -0.130892   -0.044344    0.003343
C      -0.248988   -0.890871   -1.025682
C       0.265176   -1.112308   -2.434071
C       0.864102   -2.451438   -1.863134
C      -0.132229   -2.343824   -0.644729
C       0.179253   -2.315163    0.841234
C       1.368296   -1.547734    1.356382
C       0.025244   -0.846360    1.268728
H       0.985278    1.743288    0.450997
H       0.031759    1.828128   -1.046903
H      -0.759774    1.946205    0.530111
H      -0.524169   -1.311363   -3.167202
H       0.956563   -0.375717   -2.851075
H       0.772875   -3.339225   -2.493601
H       1.904441   -2.325965   -1.555057
H      -1.031243   -2.937480   -0.851826
H      -0.211773   -3.100908    1.476987
H       1.726987   -1.825779    2.342349
H       2.148698   -1.239092    0.667617
H      -0.474001   -0.559151    2.189412
