19

O       0.082657    1.413784    0.023721
C       0.090308    0.012845    0.213179
C      -1.312412   -0.564788    0.016161
O      -1.830990   -0.120363   -1.255156
C      -1.699083   -1.037339   -2.346251
C      -1.714532   -2.472234   -1.842955
C      -2.638020   -2.606681   -0.614885
C      -1.373458   -2.085959    0.098014
O      -0.549925   -2.627923   -0.978235
H      -0.433564    1.559934   -0.778938
H       0.787682   -0.491671   -0.470938
H       0.430193   -0.175020    1.238344
H      -1.985981   -0.124915    0.763113
H      -2.541727   -0.836798   -3.018236
H      -0.763238   -0.864828   -2.896538
H      -1.747169   -3.209865   -2.648829
H      -3.544602   -2.001028   -0.575159
H      -2.845983   -3.648696   -0.371259
H      -1.091842   -2.472712    1.080918
