19

O      -0.007041    1.325063    0.125770
C       0.068320   -0.062742    0.012070
C      -0.140745   -0.714491   -1.346173
C       0.021109   -2.208304   -1.041649
C      -1.228993   -2.738550   -0.280731
C      -0.544869   -2.305353    1.031945
C      -0.386774   -0.785871    1.262125
C       1.085344   -0.825696    0.819895
C       0.845773   -2.265903    0.324879
H       0.724059    1.701992   -0.376956
H      -1.117921   -0.483761   -1.783467
H       0.630151   -0.353051   -2.041439
H       0.378520   -2.794918   -1.888615
H      -2.196869   -2.297746   -0.540024
H      -1.307048   -3.828702   -0.337444
H      -0.704836   -2.873035    1.950177
H      -0.835361   -0.205212    2.059251
H       1.966954   -0.389452    1.272382
H       1.594397   -3.044579    0.452687
