17

C      -0.095477    1.640231   -0.005860
C      -0.052949    0.105189    0.017398
C       0.822301   -0.440808    1.151532
O      -1.376706   -0.464444    0.027497
C      -2.184215   -0.249463    1.084340
N      -3.346700   -0.742097    1.087044
C       0.513962   -0.375193   -1.326561
O       1.649874   -0.180425   -1.666666
H       0.908681    2.023635   -0.202693
H      -0.767237    1.994744   -0.792650
H      -0.438593    2.042480    0.951499
H       0.529625   -0.027071    2.120457
H       0.749946   -1.530777    1.199698
H       1.862250   -0.168261    0.957029
H      -1.740038    0.357873    1.880619
H      -3.826205   -0.492603    1.949649
H      -0.223662   -0.909963   -1.960669
