15

O      -0.156757    1.458920    0.300920
C       0.004266    0.077156    0.014072
C       0.718853   -0.690271    1.145027
C      -0.423234   -1.180813    2.042738
O      -0.387369   -1.394031    3.221720
N      -1.576194   -1.371449    1.217760
C      -2.382982   -0.154752    0.991816
C      -1.380000   -0.588715   -0.012515
H       0.718119    1.854843    0.370700
H       0.507382   -0.058677   -0.951198
H       1.232129   -1.570406    0.738877
H       1.446692   -0.101547    1.706880
H      -3.439251   -0.337311    0.819921
H      -2.150529    0.723144    1.585060
H      -1.703797   -1.061873   -0.933862
