13

O      -0.046152    1.355647    0.010098
C       1.215105    1.844479    0.000386
C       2.102952    0.799766   -0.014147
C       3.516764    0.628414   -0.029039
N       4.087909   -0.542736   -0.041098
N       3.323725   -1.700228   -0.039915
C       2.022367   -1.635113   -0.026714
C       1.309349   -0.402285   -0.012926
C      -0.000163    0.003745    0.002168
H       1.308490    2.917000    0.005392
H       4.189865    1.482863   -0.030956
H       1.501072   -2.589786   -0.026854
H      -0.949748   -0.503495    0.008709
