11

O       0.033115   -0.091125    0.001366
C      -0.017812    1.116139    0.006197
C       1.208764    1.930965    0.000937
N       2.177918    2.561310   -0.003280
C      -1.236184    1.879844    0.017213
C      -2.265688    2.505711    0.026374
C      -3.528263    3.234572    0.036945
C      -3.362467    4.692740    0.043248
N      -3.250473    5.841143    0.048354
H      -4.125048    2.948082   -0.838883
H      -4.115392    2.939380    0.916395
