20

C       0.104189    1.410896    0.192702
N       0.009216   -0.035404    0.172120
C      -1.103892   -0.648876    0.160883
N      -1.149697   -2.039953    0.295400
C       0.134486   -2.705154    0.474912
C      -2.067360   -2.779950   -0.568437
C      -2.472943    0.038341    0.128345
N      -3.291658   -0.343896    1.149230
O      -2.773965    0.881739   -0.692960
H       0.634096    1.738072   -0.709722
H      -0.849493    1.947002    0.235353
H       0.726010    1.711328    1.044761
H       0.703853   -2.196942    1.252785
H      -0.049412   -3.743580    0.766371
H       0.741695   -2.694898   -0.441697
H      -3.019336   -2.255749   -0.661448
H      -1.654974   -2.926051   -1.578783
H      -2.260409   -3.765755   -0.133880
H      -3.016503   -1.071805    1.785877
H      -4.202811    0.078341    1.227405
