18

C       0.071094    1.544255    0.034667
C      -0.024406    0.054353   -0.005928
C       0.889820   -1.009188   -0.577658
C       0.510762   -1.025388    0.911447
C      -0.769616   -1.889921    0.857225
C      -0.514415   -3.026022   -0.164107
C      -0.256142   -1.868043   -1.159783
C      -1.202034   -0.928992   -0.316416
H       1.087177    1.861495    0.295355
H      -0.175539    1.990477   -0.936246
H      -0.610080    1.971631    0.780300
H       1.914787   -0.917463   -0.914478
H       1.249505   -0.945912    1.699074
H      -1.346384   -2.033010    1.770250
H       0.291224   -3.740484    0.033238
H      -1.438003   -3.563305   -0.405045
H      -0.325454   -1.989514   -2.240148
H      -2.230415   -0.687279   -0.575596
