16

C      -0.029906    1.496718    0.065499
C       0.014043    0.009408   -0.022776
N      -0.010406   -0.705811   -1.106938
C       0.034077   -2.037681   -0.702687
C      -0.006057   -3.170960   -1.602731
O      -0.056244   -3.138599   -2.812530
C       0.097192   -2.099617    0.685065
N       0.243200   -3.143722    1.586833
N       0.079332   -0.798928    1.107137
H       0.860959    1.903350    0.558548
H      -0.079859    1.899980   -0.946300
H      -0.906127    1.846043    0.624196
H       0.006373   -4.156099   -1.068376
H       0.205500   -4.050418    1.141735
H      -0.400655   -3.114101    2.368595
H       0.189699   -0.492833    2.060432
