16

C      -0.071657    1.814105    0.473477
C      -0.129341    0.349622    0.111826
O       0.806252   -0.102378   -0.866497
C       0.963249   -0.592043    0.469957
C       2.134465   -0.147706    1.192207
N       3.062286    0.195190    1.790331
C      -1.514227   -0.230527   -0.030067
C      -2.006556   -0.699563   -1.333586
O      -1.599144   -1.619459   -0.315751
H       0.961778    2.152771    0.562000
H      -0.569299    2.409518   -0.298704
H      -0.582003    1.996180    1.424551
H       0.709831   -1.641202    0.598895
H      -2.232162    0.131708    0.706421
H      -3.074052   -0.679758   -1.543707
H      -1.342153   -0.644383   -2.191918
