19

C       0.264484    1.634852   -0.025828
C       0.084182    0.115331   -0.021530
C       0.716956   -0.624841   -1.178604
O       2.152563   -0.585442   -1.139578
C       1.489844   -1.792680   -0.712445
C       1.750606   -3.023306   -1.535133
C       1.409013   -1.864985    0.799602
C       0.731263   -0.549892    1.213197
O       0.701300   -0.100379    2.327688
H       1.317353    1.887332   -0.178877
H      -0.323059    2.101815   -0.821552
H      -0.052723    2.047854    0.934802
H      -0.988818   -0.128532    0.016949
H       0.277415   -0.584668   -2.173093
H       1.742801   -2.780166   -2.600667
H       2.727957   -3.453317   -1.290700
H       0.990695   -3.788308   -1.343493
H       0.791730   -2.709651    1.132205
H       2.385005   -1.960090    1.283976
