13

F       0.050213    0.051780   -0.144854
C      -0.068228    1.362598   -0.034824
N      -1.187933    1.878319    0.251046
N      -1.170019    3.254874    0.334389
C      -0.100448    4.115409    0.146454
N      -0.137692    5.386738    0.234889
C       1.201430    3.434628   -0.190534
N       2.259143    4.105172   -0.386802
N       1.101675    2.037054   -0.256653
H      -2.069063    3.646430    0.562067
H      -1.076581    5.717346    0.467871
H       3.056592    3.504447   -0.604883
H       1.926581    1.498408   -0.477050
