21

C       0.039938    1.633579   -0.094512
C       0.025049    0.105909    0.025664
C       0.745263   -0.627267   -1.138406
C       1.377958   -1.890801   -0.509524
C       1.486308   -1.518187    0.956606
C       0.752135   -0.437350    1.235541
C       2.280877   -2.288927    1.929026
C       2.525980   -3.738029    1.796046
O       3.550193   -2.803829    1.478219
H       1.067608    2.012074   -0.123624
H      -0.465907    1.959949   -1.009477
H      -0.468503    2.105903    0.752873
H      -1.027982   -0.215983    0.070563
H       0.078525   -0.853152   -1.974901
H       1.540178    0.022191   -1.522782
H       0.729159   -2.769754   -0.634113
H       2.347212   -2.152572   -0.944386
H       0.650733    0.003105    2.223133
H       2.313433   -1.871899    2.935861
H       2.690400   -4.333380    2.693828
H       2.106651   -4.280643    0.950337
