19

C       0.379706    1.473732   -0.393351
C       0.022052    0.026808   -0.040476
O      -1.333785   -0.049142    0.404150
C       0.313369   -0.917479   -1.192806
C       1.365367   -1.698485   -0.967736
C       1.984817   -1.442344    0.383277
C       0.893524   -0.598161    1.104590
C       1.410027    0.335364    2.091890
C       1.853811    1.099460    2.907777
H       1.437642    1.569960   -0.652867
H      -0.205566    1.806178   -1.259639
H       0.168260    2.133049    0.452309
H      -1.868666    0.509448   -0.169308
H      -0.281552   -0.894120   -2.100193
H       1.771691   -2.422784   -1.665473
H       2.222419   -2.357599    0.935323
H       2.922350   -0.879158    0.294054
H       0.210550   -1.294098    1.604657
H       2.239691    1.770168    3.634736
