18

C      -0.284684    1.299277   -0.092901
O       0.235503   -0.005044    0.085490
C       0.804780   -0.539110   -1.065717
C      -0.104515   -1.103328   -2.127047
C       0.762474   -2.034005   -1.280017
C       2.089032   -2.385228   -1.863022
C       2.865206   -1.307453   -2.005899
C       2.197151   -0.051509   -1.486682
H       0.502534    2.025030   -0.343151
H      -1.045852    1.325596   -0.885674
H      -0.743656    1.592550    0.854200
H      -1.163553   -1.092707   -1.890685
H       0.141453   -0.982185   -3.177404
H       0.265589   -2.688459   -0.573157
H       2.355116   -3.395027   -2.153842
H       3.856491   -1.299010   -2.444389
H       2.162439    0.743822   -2.241378
H       2.726190    0.358740   -0.615370
