16

N       0.124832    1.404882    0.046505
C      -0.062095    0.029778    0.013860
C      -1.146155   -0.779910   -0.114450
C      -2.632923   -0.850825   -0.287987
C      -2.852131   -2.391635   -0.137614
O      -1.576728   -3.056395   -0.333979
C      -0.624636   -2.104144   -0.176100
C       0.721779   -2.059867   -0.076549
O       1.073706   -0.711149    0.044837
H       0.992720    1.660806    0.500211
H      -0.654217    1.899348    0.459145
H      -3.214846   -0.305574    0.462312
H      -2.959171   -0.497725   -1.274030
H      -3.208939   -2.634407    0.870436
H      -3.552440   -2.804203   -0.867010
H       1.533099   -2.762433   -0.071151
