21

C       0.060950    1.643538   -0.204949
C      -0.039392    0.148338   -0.062682
C       0.554639   -0.905252   -0.947531
C       1.592821   -1.714016   -0.120424
C       1.621070   -1.021836    1.299325
C       0.179187   -0.581709    1.259432
C      -0.841496   -1.405140    1.538623
C      -1.786741   -1.519332    0.355775
C      -0.995203   -0.788393   -0.731471
H       1.032816    2.017046    0.139059
H      -0.054061    1.941235   -1.252423
H      -0.714451    2.156231    0.375853
H       0.843102   -0.655052   -1.965643
H       1.324504   -2.769080   -0.004936
H       2.568413   -1.674191   -0.618262
H       1.859079   -1.718515    2.106141
H       2.344160   -0.199546    1.315523
H      -0.815631   -2.158608    2.320419
H      -1.964320   -2.581645    0.139185
H      -2.779243   -1.062596    0.484973
H      -1.526971   -0.470300   -1.625633
