15

O      -0.029237    1.421823   -0.029002
C      -0.000826   -0.005487    0.017967
C      -1.455509   -0.475954    0.007995
C      -2.112170   -0.339119   -1.336931
C      -1.451432   -0.218042   -2.496640
C       0.018372   -0.230154   -2.570270
O       0.644674   -0.111594   -3.599485
C       0.755425   -0.470385   -1.226558
O       1.865995   -0.935003   -1.192986
H       0.879129    1.740648    0.020079
H       0.524730   -0.367873    0.910387
H      -1.506439   -1.524574    0.331992
H      -2.008685    0.102265    0.756693
H      -3.199768   -0.350089   -1.344385
H      -1.971918   -0.121321   -3.444415
