22

C       0.023390    1.440557   -0.017049
N       0.228275    0.002493    0.052634
C       0.467305   -0.641342   -1.003749
O       0.531971   -0.093617   -2.255463
C       0.960167   -1.058119   -3.237896
C       2.388057   -0.747004   -3.673312
C       0.770860   -2.438883   -2.570283
C       0.728850   -2.138231   -1.057350
C       1.999047   -2.515696   -0.281469
H       0.445551    1.904402    0.880155
H       0.465520    1.910511   -0.903608
H      -1.051258    1.664533   -0.017000
H       0.288355   -0.935041   -4.093447
H       3.091048   -0.870518   -2.843512
H       2.691208   -1.419294   -4.482630
H       2.461647    0.282599   -4.034081
H      -0.169163   -2.888564   -2.900189
H       1.576220   -3.127331   -2.838509
H      -0.117548   -2.644610   -0.585495
H       2.889682   -2.049230   -0.715428
H       1.913610   -2.178448    0.754277
H       2.148634   -3.600048   -0.288420
