18

C      -0.250688    1.530376    0.054617
C       0.102678    0.065081   -0.019443
O       1.373658   -0.172173   -0.746468
C       1.952920   -0.742534    0.353754
N       3.075773   -1.277406    0.539231
C       0.719224   -0.601107    1.238736
O       0.826403    0.258977    2.338704
C       0.209323   -1.972684    1.680523
O       1.108986   -2.482990    2.651954
H       0.540600    2.096362    0.549173
H      -0.408476    1.930255   -0.951041
H      -1.173428    1.659664    0.628381
H      -0.684903   -0.524371   -0.499344
H       3.666592   -1.249286   -0.293369
H       1.157411   -0.291462    3.062977
H      -0.764311   -1.872272    2.171511
H       0.100721   -2.647204    0.818895
H       1.975607   -2.550610    2.221190
