23

O       0.061982    1.432636    0.159976
C       0.072165    0.016730    0.049406
C      -1.372013   -0.484823   -0.038260
C      -1.381916   -2.008095   -0.263071
C      -2.657487   -2.592718   -0.900046
C      -4.006393   -2.044202   -0.382427
C      -4.030298   -1.537200    1.063988
O      -3.534361   -0.215827    1.188220
C      -2.131041   -0.077149    1.239367
H       0.965160    1.732453    0.295690
H       0.620248   -0.304112   -0.850418
H       0.571680   -0.446954    0.917401
H      -1.840850    0.025840   -0.889791
H      -0.533283   -2.290686   -0.899381
H      -1.196663   -2.496320    0.703173
H      -2.618183   -2.437307   -1.984724
H      -2.628032   -3.679619   -0.757631
H      -4.334864   -1.202275   -1.002015
H      -4.770481   -2.822799   -0.495771
H      -5.068730   -1.487504    1.409273
H      -3.492784   -2.220335    1.742781
H      -1.721960   -0.655806    2.088475
H      -1.949475    0.981225    1.437332
