18

C       0.025524    1.530340    0.046746
C       0.201625    0.033849    0.151509
O       0.566475   -0.513050   -1.106836
C       1.411480   -1.632118   -0.857770
C       1.658409   -1.576569    0.649100
C       1.388801   -2.731474    1.576287
C       2.800806   -2.201696    1.366682
O       1.261693   -0.283448    1.031527
H       0.960427    1.987441   -0.285790
H      -0.762847    1.760135   -0.674247
H      -0.254296    1.944250    1.018887
H      -0.724459   -0.456883    0.505656
H       0.924401   -2.567903   -1.161265
H       2.332858   -1.509533   -1.439722
H       0.910377   -2.504204    2.522300
H       1.129116   -3.694085    1.147177
H       3.502005   -2.800824    0.794919
H       3.245424   -1.630296    2.173762
