18

C       0.161079    1.433781    0.099833
N       0.096676   -0.014825    0.044832
C       0.097665   -0.783578   -1.108916
C      -0.015385   -2.086654   -0.680971
N      -0.119147   -3.261256   -1.432628
N      -0.083780   -2.133323    0.685134
C      -0.025462   -0.873725    1.093180
C      -0.076961   -0.449542    2.526258
O       1.077566    0.280599    2.948421
H       0.850743    1.798937   -0.665857
H      -0.821968    1.886059   -0.074337
H       0.535351    1.733909    1.078769
H       0.183766   -0.337961   -2.085705
H       0.453236   -3.260434   -2.266154
H       0.096960   -4.067625   -0.860524
H      -0.919417    0.224866    2.716399
H      -0.231885   -1.355569    3.124140
H       1.843626   -0.278573    2.778729
