21

C       0.023430    1.509484    0.025933
C      -0.026085    0.016109    0.025992
C      -1.100532   -0.786202   -0.013419
C      -2.604581   -0.670226   -0.069346
C      -3.091587   -2.161047   -0.085868
C      -1.816555   -2.985844   -0.036695
C      -0.737961   -2.194435    0.002193
C       0.765006   -2.309418    0.059234
C       1.245891   -0.821013    0.074729
H       0.593343    1.891688   -0.832060
H      -0.977157    1.949031   -0.012262
H       0.527190    1.893948    0.923409
H      -3.006400   -0.127616    0.792950
H      -2.941912   -0.129109   -0.959744
H      -3.749867   -2.379710    0.765202
H      -3.683686   -2.381893   -0.983724
H      -1.827786   -4.069745   -0.035524
H       1.098673   -2.850673    0.950461
H       1.165403   -2.854043   -0.801941
H       1.902967   -0.595993   -0.776724
H       1.837941   -0.593131    0.971871
