16

O      -0.001900    1.451676    0.027377
C       0.048148    0.033862   -0.037761
C      -1.412950   -0.512411   -0.088345
C      -1.271199   -1.784222   -0.935181
O      -2.037621   -2.005849   -2.172006
C      -0.800523   -2.123431   -2.943931
C      -0.069980   -1.511220   -1.776627
C       0.647280   -0.478005   -1.357840
H       0.864028    1.773975    0.295310
H       0.581568   -0.358812    0.842555
H      -1.851462   -0.662132    0.901291
H      -2.009518    0.225006   -0.633763
H      -1.284630   -2.705096   -0.337556
H      -0.573750   -3.175017   -3.163503
H      -0.823520   -1.548845   -3.875662
H       1.439043    0.051998   -1.874325
