17

N       0.129124    1.352425    0.097852
C      -0.071236   -0.014638   -0.047254
C      -1.169105   -0.782778   -0.285819
C      -0.723707   -2.151051   -0.181696
C      -1.564344   -3.378298   -0.333996
O      -2.732331   -3.348772    0.484714
C       0.604355   -2.112286    0.100220
N       1.547341   -3.121989    0.285034
O       1.020949   -0.783829    0.181343
H       1.027004    1.656422   -0.258563
H      -0.617194    1.895509   -0.314267
H      -2.170999   -0.442184   -0.491916
H      -1.944250   -3.465877   -1.358762
H      -0.945849   -4.264423   -0.133715
H      -2.438159   -3.181016    1.386132
H       2.192976   -3.212616   -0.494067
H       2.095366   -2.985925    1.128601
