21

C      -0.095345    1.546575   -0.045422
C       0.035426    0.027853    0.001946
C       1.077890   -0.587879   -0.951532
O       2.328067   -0.041801   -0.427219
C       2.189138   -0.058407    0.994740
C       0.748984   -0.615096    1.244875
C       0.183796   -0.368051    2.630814
C       0.832258   -2.059920    0.771242
C       1.024865   -2.050758   -0.551975
H       0.879179    2.039585   -0.070754
H      -0.642326    1.850612   -0.944268
H      -0.653821    1.925184    0.817389
H      -0.942444   -0.442141   -0.133903
H       1.031680   -0.341432   -2.011535
H       2.959137   -0.693873    1.448697
H       2.299518    0.961006    1.387308
H       0.149223    0.700831    2.865646
H      -0.832691   -0.765659    2.719383
H       0.796446   -0.853320    3.399120
H       0.839317   -2.913829    1.438932
H       1.230372   -2.889722   -1.204026
