17

C      -0.139511    1.606076   -0.166503
C       0.179587    0.114017   -0.043693
N       0.724812   -0.457859   -1.279804
C       2.175940   -0.461591   -1.412957
C      -0.168149   -0.882867   -2.206687
O      -1.383220   -0.802933   -2.060037
C       0.267769   -1.520356   -3.538219
O       1.367569   -1.618634   -4.015694
H       0.747236    2.187068   -0.439496
H      -0.909307    1.763280   -0.925497
H      -0.513271    1.990091    0.787680
H       0.917079   -0.061360    0.746225
H      -0.729178   -0.438683    0.203547
H       2.467974   -0.844934   -2.385689
H       2.565982    0.557012   -1.299878
H       2.623750   -1.083386   -0.628066
H      -0.644013   -1.881301   -4.055818
