17

N      -0.092742    1.493767    0.045455
C      -0.039582    0.228475    0.054550
C      -1.284975   -0.625098    0.164002
C      -2.573739    0.205841    0.262230
C      -3.758923   -0.636255    0.366224
C      -4.721511   -1.351159    0.451175
N       1.138808   -0.554243   -0.032451
C       2.428022   -0.095170   -0.141661
O       2.765025    1.066340   -0.181120
H       0.839212    1.900907   -0.034255
H      -1.340241   -1.294185   -0.704789
H      -1.197325   -1.279137    1.041539
H      -2.504045    0.876936    1.124398
H      -2.645801    0.862160   -0.611024
H      -5.584268   -1.965194    0.527408
H       1.024400   -1.557030   -0.012403
H       3.151610   -0.931545   -0.191020
