21

O       0.219235    1.192389   -0.574277
C      -0.084619    0.015101    0.146805
C      -1.576707   -0.277695    0.139935
O      -1.960337   -0.419907   -1.219152
C      -3.308227   -0.752499   -1.401060
C      -4.416552    0.348784   -1.306450
C      -3.838554    0.937175   -2.628426
C      -3.857106   -0.608726   -2.839015
C      -5.272151   -0.601407   -2.190966
H      -0.197863    1.086301   -1.436935
H       0.451597   -0.856880   -0.260618
H       0.256188    0.169266    1.175902
H      -1.792536   -1.199530    0.704336
H      -2.127946    0.551319    0.608246
H      -3.539311   -1.695976   -0.884520
H      -4.744632    0.894986   -0.421419
H      -4.533800    1.515708   -3.242128
H      -2.859939    1.412251   -2.568266
H      -3.533758   -1.166086   -3.718725
H      -5.616582   -1.534667   -1.735505
H      -6.061961   -0.125747   -2.775609
