20

C      -0.021162    1.550270   -0.035025
C       0.035287    0.023903    0.034159
C       0.799279   -0.614911   -1.149413
O       1.362010   -1.837227   -0.679142
C       1.544511   -1.712228    0.707753
C       2.266925   -0.496088    1.235883
C       0.743440   -0.567892    1.255981
C       0.001521   -0.617771    2.569018
H       0.984863    1.982713   -0.010065
H      -0.508999    1.887667   -0.956070
H      -0.585092    1.965267    0.806229
H      -0.991241   -0.367169    0.044228
H       0.158347   -0.845825   -2.005140
H       1.592960    0.062720   -1.500056
H       1.639779   -2.676420    1.194316
H       2.773075   -0.596410    2.190736
H       2.771403    0.162087    0.536511
H      -0.169470    0.387085    2.973582
H      -0.976123   -1.100839    2.453444
H       0.564058   -1.178865    3.322054
