19

C      -0.072674    1.538308   -0.015619
C      -0.009124    0.006930    0.078873
C      -1.357990   -0.632916   -0.058908
O      -2.338400   -0.207677    0.958245
C      -2.958549   -1.485322    0.768893
C      -2.996312   -1.773571   -0.733635
C      -1.784034   -2.134033    0.131193
C      -2.240534   -0.593248   -1.347436
O      -2.908235    0.599999   -1.637158
H       0.928518    1.971238    0.062817
H      -0.516196    1.856821   -0.962699
H      -0.684130    1.946119    0.794206
H       0.639716   -0.398415   -0.707766
H       0.430087   -0.293366    1.037570
H      -3.684976   -1.829820    1.492255
H      -3.717329   -2.437405   -1.192419
H      -1.247008   -3.056974    0.293220
H      -1.673756   -0.893049   -2.232530
H      -3.241249    0.915580   -0.785553
