17

C       0.012476    1.504525    0.009791
C       0.048063   -0.002683    0.001130
O       1.060284   -0.662972   -0.011924
C      -1.328313   -0.716383    0.010815
O      -2.344679   -0.060118    0.023965
C      -1.297636   -2.227506    0.002354
C      -2.705126   -2.843254    0.012799
C      -2.670390   -4.299942    0.004509
C      -2.617213   -5.500513   -0.002508
H       1.029441    1.896740    0.002119
H      -0.546042    1.871323   -0.857312
H      -0.529113    1.861686    0.891537
H      -0.722781   -2.557729   -0.870969
H      -0.705795   -2.567098    0.860603
H      -3.251887   -2.484347    0.892338
H      -3.268996   -2.474821   -0.851870
H      -2.584980   -6.561709   -0.008634
