16

O      -0.109620    0.032465   -0.421653
C      -0.069284    1.189451   -0.140609
C      -1.070215    2.241945    0.359054
O       0.000054    3.211255    0.397607
C       0.996848    2.290473   -0.096345
C       2.335094    2.246046    0.712546
C       3.067060    2.715650   -0.551915
N       2.790336    1.685856   -1.576326
C       1.794702    2.756764   -1.323069
H      -1.865748    2.509594   -0.347291
H      -1.506197    2.048743    1.346648
H       2.289909    3.003653    1.497646
H       2.643414    1.280415    1.118676
H       3.941172    3.350565   -0.616927
H       3.291845    1.948128   -2.424915
H       1.445794    3.419602   -2.104609
