15

C       0.007798    1.423753    0.009280
N       0.034549   -0.030690    0.005122
C      -1.067705   -0.646400    0.011085
C      -1.284454   -2.156968    0.008327
N      -2.736989   -2.377183    0.018207
C      -3.258619   -1.208676    0.025123
N      -2.377465   -0.136362    0.021586
C      -4.672747   -0.956387    0.036110
N      -5.800468   -0.705278    0.045049
H       1.030495    1.806479    0.000241
H      -0.507667    1.832503   -0.873506
H      -0.489959    1.827352    0.904482
H      -0.840433   -2.626165   -0.876198
H      -0.827670   -2.631279    0.883573
H      -2.639717    0.834235    0.027294
