25

C      -2.889973    0.195331   -2.612370
C      -2.130470   -1.057282   -2.168429
C      -0.652786   -1.045591   -2.586517
C       0.098413   -2.271328   -2.100476
C       0.191636   -3.565993   -2.885550
C      -0.419556   -3.759776   -4.257488
C       1.432749   -2.726849   -2.660044
C       2.134390   -2.015812   -3.787351
O       2.937165   -2.974498   -4.471306
H      -2.443191    1.101393   -2.187532
H      -2.875842    0.302258   -3.702981
H      -3.937290    0.161729   -2.296092
H      -2.193723   -1.157746   -1.076768
H      -2.614673   -1.950703   -2.582222
H      -0.593595   -0.950368   -3.676155
H      -0.174234   -0.142716   -2.181036
H       0.005400   -2.403509   -1.023834
H       0.148485   -4.467371   -2.278821
H      -0.421530   -2.845237   -4.855428
H       0.139805   -4.512743   -4.822065
H      -1.458318   -4.099371   -4.178061
H       2.136744   -3.122405   -1.932223
H       1.415521   -1.548206   -4.474333
H       2.758190   -1.205199   -3.376689
H       3.448904   -2.509485   -5.140191
