21

C      -0.179839    1.623976    0.232864
N      -0.098155    0.197452   -0.022854
C      -1.250007   -0.567693   -0.013073
O      -2.368994   -0.083510    0.019740
N      -1.013764   -1.929337   -0.052939
C      -2.083974   -2.877817   -0.218144
C      -2.213438   -3.695658   -1.535832
C      -2.670030   -4.904175   -0.673772
C      -2.023162   -4.218380    0.560824
H       0.622732    2.144970   -0.297359
H      -1.143545    1.973278   -0.137701
H      -0.115113    1.871121    1.301366
H       0.758038   -0.259259    0.249595
H      -0.088970   -2.239224   -0.309803
H      -3.006424   -2.335401   -0.007670
H      -2.885501   -3.315886   -2.308706
H      -1.229676   -3.876677   -1.983902
H      -3.758900   -4.950268   -0.586749
H      -2.301510   -5.892872   -0.953318
H      -0.986294   -4.545188    0.697658
H      -2.536065   -4.273913    1.523915
