18

C       0.139642    1.465519   -0.278772
N       0.023389    0.057080    0.209081
H       0.626980   -0.544836   -0.361303
H       0.318460   -0.004915    1.189138
C      -1.345227   -0.531709   -0.009868
C      -2.479849   -0.373057    1.018947
O      -2.848992   -1.748491    0.861019
C      -1.680510   -2.000688   -0.039817
C      -1.638939   -1.221200   -1.254829
C      -2.524729   -0.893667   -2.326328
O      -3.204013   -1.652212   -2.998020
H       1.165141    1.819931   -0.160160
H      -0.155812    1.460967   -1.328416
H      -0.546501    2.085968    0.297780
H      -2.136633   -0.174491    2.049179
H      -3.283553    0.327910    0.765743
H      -1.116783   -2.884208    0.247994
H      -2.491671    0.202844   -2.581499
