11

N       0.001492    1.328324    0.007968
C      -0.001641   -0.017964    0.000777
N      -1.135708   -0.659116    0.003800
C      -1.114482   -2.027334   -0.003687
O      -2.057931   -2.757880   -0.002208
O       0.162981   -2.684907   -0.014482
N       1.339234   -2.000858   -0.017506
C       1.271254   -0.718511   -0.010240
H       0.852885    1.860233    0.006053
H      -0.882576    1.811248    0.015645
H       2.222199   -0.195156   -0.012849
