23

C       0.133659    1.577849   -0.176215
C       0.077754    0.080560    0.049594
O       0.955771   -0.649390   -0.833921
C       1.374758   -1.553967    0.230469
C       0.671034   -2.903168    0.096910
C       2.887435   -1.724468    0.225140
C       0.721839   -0.603330    1.292691
C       1.668880    0.255081    2.119769
O      -0.176957   -1.296263    2.139810
H       1.150892    1.965489   -0.076819
H      -0.217635    1.812670   -1.186114
H      -0.515421    2.102436    0.533869
H      -0.959541   -0.272393   -0.054075
H       0.995458   -3.387808   -0.829244
H       0.916856   -3.556540    0.939210
H      -0.413452   -2.787110    0.070513
H       3.404501   -0.763003    0.237040
H       3.217370   -2.314548    1.086526
H       3.191681   -2.255931   -0.682357
H       2.389206    0.797083    1.504404
H       1.101304    1.002307    2.689120
H       2.220358   -0.367158    2.830839
H      -0.454067   -0.697944    2.840845
