13

N      -0.034637    1.354798    0.118349
C       0.052582   -0.000517    0.037835
N       1.184751   -0.600973    0.017009
C       1.187376   -1.984890   -0.004065
C       2.300695   -2.800358   -0.031559
N       1.785662   -4.053342   -0.048263
N       0.441808   -4.039640   -0.031971
N       0.076135   -2.790737   -0.005000
H       0.813689    1.882202   -0.020673
H      -0.898897    1.805047   -0.127473
H      -0.908583   -0.521305    0.029941
H       3.355453   -2.589394   -0.039521
H       2.267596   -4.937121   -0.068078
