15

C       0.083771   -1.167471    0.026451
C       0.038469    0.035190    0.011104
C      -0.016761    1.453185   -0.007105
C       0.261643    2.275049   -1.248535
C       1.095389    2.505413   -0.027026
C       0.328641    3.221077    1.094523
C      -1.081370    3.541408    0.790698
N      -0.729600    2.153841    1.155351
H       0.123196   -2.228181    0.045230
H       0.759377    1.693210   -2.017046
H      -0.431059    3.009568   -1.642993
H       2.163373    2.338494   -0.001207
H       0.820189    3.552383    2.003107
H      -1.649682    4.022279    1.582144
H      -1.422504    3.794584   -0.205780
