14

O      -0.039320    0.040732    0.006748
C      -0.045935    1.231461   -0.032721
C      -1.103155    2.361509    0.088306
C       0.002385    3.128285    0.870173
C       1.028211    2.357908   -0.005463
O       1.117824    2.970496   -1.306783
C      -0.055532    3.226799   -1.975023
O      -0.042642    3.646603   -3.098363
N      -1.192474    2.979520   -1.235712
H      -2.090366    2.186244    0.511550
H       0.003728    4.214370    0.770016
H       0.053726    2.823697    1.917680
H       2.045876    2.166478    0.328364
H      -2.050051    2.940406   -1.762160
