14

O       0.233239    0.830678   -1.449298
C       0.059694    1.403302   -0.394580
N       1.035071    1.596948    0.533487
C       2.342210    1.015565    0.380210
C       3.338109    1.664629   -0.629764
N       4.222181    1.907954    0.520333
C       3.345483    1.470154    1.474714
O       3.337958    1.485548    2.676771
H      -0.909606    1.840185   -0.085446
H       0.803485    2.001253    1.428617
H       2.284662   -0.070216    0.259870
H       3.748652    0.990413   -1.384619
H       2.955178    2.573727   -1.100131
H       5.101183    2.396358    0.606618
