20

C       0.200008    1.287205   -0.350583
C       0.256680   -0.154940    0.103447
C       1.552853   -0.858035    0.303514
N       0.691223   -0.551245    1.448540
C       1.142054    0.463007    2.390955
C       1.700814   -0.210133    3.638745
O       2.895326   -0.938442    3.332137
C       2.799210   -2.275294    3.193737
O       3.724402   -2.955059    2.863527
H       1.092955    1.849814   -0.067952
H       0.115215    1.327805   -1.441447
H      -0.673860    1.800937    0.065858
H      -0.585350   -0.753021   -0.242997
H       1.668664   -1.911056    0.062321
H       2.460792   -0.267730    0.187572
H       1.906084    1.143575    1.984093
H       0.283100    1.074034    2.695891
H       1.976731    0.535828    4.389445
H       0.948949   -0.883772    4.066468
H       1.788284   -2.658745    3.426303
