18

C      -0.090021    1.575187    0.096729
C      -0.009236    0.036367    0.045269
C       0.719977   -0.521467    1.285527
C      -1.374147   -0.514737    0.015556
N      -2.443714   -0.951939    0.028472
C       0.709054   -0.445124   -1.267633
O       0.001827   -0.046502   -2.429405
C       2.106565   -0.009941   -1.309969
C       3.240742    0.382689   -1.381242
H       0.918538    1.997704    0.099296
H      -0.640140    1.966929   -0.762200
H      -0.606695    1.900159    1.002838
H       0.185262   -0.244460    2.197267
H       0.784608   -1.612716    1.248514
H       1.732407   -0.113746    1.334177
H       0.676129   -1.541024   -1.268097
H       0.296702    0.837079   -2.673650
H       4.249514    0.710315   -1.447753
