16

O      -0.126015   -0.009249   -0.069061
C      -0.059244    1.187971   -0.038018
C      -1.264640    2.172848    0.062469
C      -0.636795    3.416095    0.664336
C       0.686780    3.370078    0.513364
C       1.983785    3.685437    1.222203
C       2.306838    2.149080    1.059816
C       1.195878    2.075995   -0.049329
H      -1.686812    2.316772   -0.942487
H      -2.062892    1.740296    0.675049
H      -1.196556    4.129190    1.258553
H       2.673690    4.293107    0.627318
H       1.926089    4.099719    2.231564
H       3.321907    1.890370    0.753303
H       2.036549    1.577513    1.949923
H       1.623001    2.105202   -1.058700
