19

O      -0.135994    1.429547    0.007456
C      -0.010586    0.007080    0.020025
C      -1.429952   -0.541671   -0.023608
O      -2.164090   -0.039180    1.077932
C      -2.146095   -0.338286   -1.408587
C      -2.379743   -1.826883   -1.722599
C      -2.930176   -2.409419   -0.401463
C      -1.474439   -2.088554   -0.015137
O      -1.071246   -2.406586   -1.382567
H       0.725841    1.816055    0.184632
H       0.562359   -0.361466   -0.839205
H       0.478279   -0.331756    0.945818
H      -1.917340    0.891802    1.151591
H      -3.068917    0.234552   -1.293533
H      -1.511958    0.143335   -2.155119
H      -2.751101   -2.113993   -2.706216
H      -3.738465   -1.892550    0.117323
H      -3.100885   -3.484095   -0.468014
H      -0.916567   -2.615031    0.759636
