19

C      -0.464263    1.775845    0.149375
C       0.044181    0.352094   -0.000432
C       0.786903   -0.036726   -1.295348
C       1.952813   -0.328130   -0.360162
C       2.884860   -1.491123   -0.311295
C       3.412466   -0.073678   -0.512882
O       1.236742    0.108635    0.806365
C      -1.009177   -0.651077    0.450529
O      -1.617369   -1.390756   -0.277487
H       0.337161    2.482528   -0.082706
H      -1.305140    1.956462   -0.528517
H      -0.798628    1.962375    1.175459
H       0.354501   -0.890455   -1.818509
H       0.945343    0.789635   -1.991244
H       3.052258   -1.949214    0.657536
H       2.901292   -2.179133   -1.150403
H       3.790797    0.209161   -1.490108
H       3.922829    0.389494    0.324794
H      -1.157031   -0.654701    1.554262
