15

N      -0.063982    1.382595    0.251108
C       0.013953    0.005995    0.072539
N      -1.147879   -0.646908   -0.001917
C      -1.104605   -1.981422   -0.110324
C       0.064864   -2.712276   -0.160368
O       0.158268   -4.080787   -0.279202
C       1.285565   -2.018337   -0.090461
O       2.459099   -2.687530   -0.138283
C       1.260803   -0.641557    0.031189
H       0.699654    1.919301   -0.131497
H      -0.971532    1.751879    0.005907
H      -2.065638   -2.493746   -0.165794
H      -0.723681   -4.464119   -0.300884
H       2.253685   -3.628641   -0.216487
H       2.192004   -0.091594    0.100958
