13

C       0.380656    1.038496   -0.031783
C      -0.517557   -0.127836    0.263482
N      -1.192574   -0.401520    1.286378
O      -0.695662   -0.996589   -0.830004
C       0.358415   -1.742012   -1.239277
O       1.444095   -1.749397   -0.720270
C      -0.005037   -2.537930   -2.388182
C      -0.251639   -3.222635   -3.343794
H       1.398210    0.685323   -0.215618
H       0.035435    1.556713   -0.932295
H       0.387082    1.739459    0.804664
H      -1.060257    0.313191    2.001701
H      -0.471646   -3.828843   -4.188902
