19

C       0.026973    1.543626   -0.020413
O       1.364937    2.033792   -0.012907
C       2.324912    1.113086    0.464293
C       1.743896    0.274626    1.607675
O       0.568910   -0.444733    1.232966
C      -0.010771    0.020036    0.012431
C       0.693231   -0.621408   -1.208108
C       2.189199   -0.826160   -0.964258
O       2.887511    0.353586   -0.580259
H      -0.517302    1.933710    0.851807
H      -0.461555    1.924851   -0.923908
H       3.152221    1.722348    0.840156
H       2.489155   -0.448163    1.957982
H       1.511929    0.956556    2.437812
H      -1.058091   -0.297671    0.044669
H       0.253756   -1.604443   -1.410286
H       0.529404    0.000140   -2.095198
H       2.321658   -1.607549   -0.203688
H       2.679884   -1.167735   -1.879767
