19

O       0.066909    1.355706   -0.388412
C       0.076854    0.006956    0.054652
C      -1.306410   -0.511926    0.281056
C      -2.312730   -0.171055    1.400812
C      -2.915703   -1.583833    1.188882
C      -3.308885   -2.558341    2.259079
C      -4.336814   -2.045266    1.273197
C      -1.914373   -1.840516    0.079824
O      -2.086620   -0.800007   -0.897816
H      -0.453206    1.378191   -1.199543
H       0.592330   -0.653018   -0.659241
H       0.642233   -0.000160    0.992316
H      -1.842551   -0.048993    2.380557
H      -2.960411    0.682905    1.190248
H      -2.977483   -3.587744    2.163134
H      -3.354481   -2.200681    3.282733
H      -5.076802   -1.338008    1.633322
H      -4.704644   -2.724718    0.511424
H      -1.488913   -2.778588   -0.261783
