17

C      -0.080797    1.512509    0.043465
C       0.206205    0.051903   -0.048188
O      -0.638291   -0.860575    0.672477
C       0.793030   -0.922247    0.912129
C       1.368695   -1.786939   -0.216777
C       0.721644   -0.781860   -1.244009
O      -0.258579   -1.260966   -2.119359
C       1.272808   -0.749721    2.239392
C       1.717358   -0.620281    3.349453
H       0.769814    2.095308   -0.323261
H      -0.953831    1.768342   -0.566746
H      -0.284711    1.796641    1.078918
H       2.460117   -1.789706   -0.250341
H       0.990767   -2.811257   -0.249951
H       1.470381   -0.262262   -1.846787
H      -0.964847   -1.610414   -1.560011
H       2.099996   -0.504619    4.333417
