16

C      -0.060336    1.451669    0.003634
N      -0.007688   -0.008946    0.031744
C       0.059912   -0.669099   -1.213899
N       0.070225    0.056084   -2.276044
C       0.109545   -2.121972   -1.106600
N       0.095321   -2.785256    0.005786
C       0.029168   -2.091209    1.177385
C      -0.021585   -0.723537    1.190219
O      -0.088080    0.023564    2.312430
H       0.824381    1.831849   -0.512527
H      -0.932429    1.767390   -0.573836
H      -0.109827    1.833977    1.018728
H       0.120833   -0.542764   -3.098341
H       0.162383   -2.678199   -2.040453
H       0.017747   -2.654939    2.103530
H      -0.092602   -0.569054    3.072158
