16

O       0.170320    0.468072    1.218802
C       0.038246    1.328658    0.370686
C       1.165566    1.818973   -0.405191
C       2.108259    2.214469   -1.040218
C      -1.284973    1.932054    0.081207
C      -1.665077    2.541168   -1.222091
N      -1.482971    3.453546   -0.099667
C      -2.728070    3.317933    0.747445
C      -2.491159    1.807552    1.003193
H       2.948653    2.560935   -1.591489
H      -0.888414    2.630257   -1.974374
H      -2.666465    2.350811   -1.606033
H      -2.635781    3.940521    1.638168
H      -3.638444    3.594448    0.206245
H      -3.267811    1.104715    0.691667
H      -2.201012    1.583003    2.029511
