20

O       1.844617    4.206996   -0.076412
C       1.005034    3.339660    0.021405
N       1.206508    1.986512    0.022956
C       2.404554    1.246630   -0.100229
C       2.331913   -0.084376   -0.237087
C       3.530083   -0.980000   -0.399762
C       4.797757   -0.185459   -0.740103
C       4.904641    1.051749    0.155549
C       3.713672    1.999142   -0.048588
H      -0.075993    3.563400    0.128439
H       0.363392    1.431879    0.066385
H       1.353906   -0.563903   -0.239847
H       3.689828   -1.561745    0.521410
H       3.327850   -1.724156   -1.180778
H       5.682956   -0.821165   -0.633124
H       4.757484    0.130440   -1.790485
H       4.939113    0.732876    1.205555
H       5.835451    1.594627   -0.038106
H       3.832366    2.580354   -0.971028
H       3.674991    2.745919    0.747792
