17

C       0.668699    0.370218    1.214724
C       0.042533    0.051469   -0.128888
O       0.404542    0.566757   -1.159565
C      -1.190691   -0.838875   -0.107711
C      -1.402629   -2.047812   -0.966714
C      -0.128749   -2.945113   -1.022000
O       0.910459   -2.338713   -0.237421
C      -0.118678   -3.081806    0.430814
C      -1.380929   -2.176079    0.563070
H       1.504258    1.058113    1.078092
H      -0.078722    0.830014    1.872937
H       1.014269   -0.543427    1.704802
H      -2.093327   -0.231139   -0.038905
H      -2.241063   -2.166815   -1.639554
H       0.172597   -3.611924   -1.819626
H       0.185390   -3.888182    1.086728
H      -2.205342   -2.394403    1.229016
