13

N      -0.232944    1.418743    0.158350
C      -0.051995    0.174856    0.000066
N       1.195177   -0.444819   -0.169537
C       1.422784   -1.360643   -1.023375
N       0.567341   -1.910645   -1.965702
C      -0.806159   -1.757787   -2.054604
N      -1.614813   -1.304202   -1.185881
C      -1.226729   -0.796244    0.062273
O      -1.782412   -1.091801    1.086568
H       0.664660    1.908532    0.105161
H       2.426833   -1.779851   -1.084045
H       0.998751   -2.484145   -2.676466
H      -1.200289   -2.117948   -3.005324
