15

C       0.058357    1.500548    0.053962
C       0.019877    0.011460   -0.003735
C      -0.089457   -0.783545   -1.073370
N      -0.116984   -2.156227   -0.722281
C       0.095456   -2.299238    0.627563
O       0.340353   -3.312608    1.243635
C       0.025003   -0.875825    1.220537
O       1.098674   -0.642006    2.105120
H       0.961014    1.843984    0.572041
H       0.048836    1.939067   -0.948039
H      -0.797380    1.905538    0.609357
H      -0.181684   -0.508978   -2.115197
H       0.034346   -2.912669   -1.370762
H      -0.943552   -0.781557    1.747579
H       1.260325   -1.484698    2.551850
