16

C      -0.014808    1.427584    0.159086
N       0.129389   -0.012804    0.006414
C       0.553160   -0.700082    0.953537
O       0.968024   -0.315843    2.254564
C       1.455535   -1.660833    2.509480
C       0.274671   -2.564476    2.542688
O      -0.959400   -2.181810    3.039177
C       0.873419   -2.144481    1.181353
O       1.390234   -3.023318    0.265759
H       0.519456    1.925057   -0.656777
H      -1.072902    1.692375    0.056664
H       0.355764    1.814976    1.115001
H       2.429526   -1.758402    2.970485
H       0.496895   -3.606594    2.759247
H      -0.934900   -1.221456    3.143438
H       0.659460   -3.483214   -0.163125
