23

C      -0.154236    1.578143   -0.044344
C       0.037694    0.063265   -0.057717
C       0.628483   -0.641059   -1.281113
C       2.150351   -0.704613   -1.238658
C       2.940836    0.269738   -0.365913
C       2.435957   -0.034541    1.073245
C       2.463582    1.141432    2.051011
C       1.078259   -0.726154    0.832663
C       1.337693   -1.647254   -0.393417
H       0.751814    2.127330   -0.309250
H      -0.924726    1.855615   -0.773770
H      -0.492650    1.932192    0.935828
H      -0.937501   -0.397778    0.141759
H       0.101716   -0.823842   -2.212152
H       2.606280   -1.091231   -2.144145
H       4.017954    0.093169   -0.457242
H       2.771552    1.315441   -0.645628
H       3.090431   -0.816753    1.484252
H       1.858612    1.983423    1.706549
H       2.088851    0.842378    3.036261
H       3.487809    1.506029    2.187308
H       0.656776   -1.174810    1.734075
H       1.357448   -2.728332   -0.428742
