19

C       0.006371    1.570454   -0.070656
C      -0.108062    0.050920   -0.128822
N       0.854892   -0.503124   -1.067605
C       0.865924   -1.867925   -1.283296
C       0.440199   -2.909069   -0.481223
N       0.758773   -4.023391   -1.200660
C       0.547384   -5.413027   -0.858894
N       1.330166   -3.697374   -2.363464
N       1.397613   -2.392212   -2.423826
H       1.018260    1.872405    0.214238
H      -0.221461    2.019464   -1.044126
H      -0.698492    1.981623    0.657072
H       0.103356   -0.368790    0.863215
H      -1.142819   -0.241642   -0.378925
H       0.932414    0.008238   -1.936923
H      -0.032259   -2.957514    0.483597
H      -0.518063   -5.621083   -0.721960
H       0.931263   -6.009644   -1.686265
H       1.083897   -5.672851    0.058498
