18

O       0.241486   -0.032525    0.024147
C       0.154714    1.150099   -0.105338
O       1.114698    2.001273    0.311564
C       0.939742    3.396415    0.090857
C       1.308217    4.296458    1.292861
N       2.281336    5.076966    0.463120
C       3.688004    4.573484    0.609783
C       3.497724    3.543135   -0.537188
C       2.068195    4.106405   -0.689592
H      -0.706553    1.671107   -0.567391
H      -0.058471    3.582428   -0.319584
H       0.494059    4.912211    1.685308
H       1.764266    3.741284    2.119687
H       4.413794    5.362912    0.394616
H       3.909527    4.162810    1.600463
H       4.137049    3.695037   -1.408328
H       3.541485    2.492371   -0.246269
H       1.795475    4.523739   -1.662682
