16

O      -0.165661    0.205464    0.640548
C      -0.120357    1.328883    0.231359
C      -1.356432    2.269173   -0.071094
C      -0.619219    3.480411    0.444951
C      -0.422629    3.698229    1.758432
C       1.055198    3.667906    2.097643
C       1.682007    3.187646    0.786634
C       0.703951    3.446603   -0.283100
N       1.096364    2.050778   -0.050174
H      -1.602138    2.287283   -1.137599
H      -2.218182    1.940950    0.508423
H      -1.177167    3.514230    2.516313
H       1.519126    4.625357    2.374145
H       1.214121    2.987362    2.942810
H       2.752610    3.280803    0.638646
H       0.885083    3.896127   -1.254427
