18

C      -0.078855    1.573498    0.099486
C      -0.021454    0.035113    0.000136
C      -1.369213   -0.529140    0.013773
C      -2.486183   -0.971514    0.002571
C       0.751562   -0.440815   -1.268930
C       2.207578    0.091523   -1.343008
O       2.895260   -0.386383   -2.472973
C       0.808459   -1.904393   -1.333651
N       0.942466   -3.051352   -1.392176
H       0.916088    2.004292    0.234957
H      -0.529078    2.003980   -0.800144
H      -0.692772    1.863836    0.954804
H       0.521139   -0.348346    0.874719
H      -3.466459   -1.380501    0.002439
H       0.215111   -0.090910   -2.158605
H       2.184479    1.178835   -1.440862
H       2.726948   -0.154929   -0.403602
H       2.976904   -1.344537   -2.395226
