18

C       0.186812    1.586047   -0.028076
C      -0.045037    0.057635    0.014881
C       0.678691   -0.523046    1.160374
N       1.262361   -0.948011    2.061924
N      -1.438119   -0.397221    0.045259
C      -2.218005    0.044590    1.198058
C      -2.120494   -0.193035   -1.223466
C      -3.317010   -1.038506   -1.333291
N      -4.267996   -1.686644   -1.428210
H       1.256160    1.801287   -0.096434
H      -0.304696    2.019782   -0.903372
H      -0.200710    2.072044    0.869936
H       0.405518   -0.380624   -0.884982
H      -2.453894    1.121889    1.184482
H      -3.160025   -0.509105    1.222325
H      -1.669669   -0.183152    2.114938
H      -2.437004    0.851848   -1.398928
H      -1.444261   -0.461748   -2.043015
