18

C      -0.097910    1.355663    0.210800
C       1.392019    1.519032   -0.227080
C       2.367820    0.297865   -0.218680
C       2.470769   -1.048810    0.478153
N       1.900292   -1.362884    1.795677
C       1.261103   -1.920105    0.564409
C       0.000668   -1.145678    0.373932
C       0.054424   -0.038612   -0.375599
C       1.258761    0.384629   -1.216898
H      -0.369167    1.425058    1.267793
H      -0.688928    2.063658   -0.381931
H       1.842194    2.491469   -0.407004
H       3.338091    0.652258   -0.565961
H       3.411504   -1.541528    0.237263
H       2.461495   -2.081107    2.250401
H       1.349317   -2.987136    0.380826
H      -0.721148   -1.202957    1.186446
H       1.342506    0.373350   -2.296186
