16

O      -0.140542    0.036104    0.024965
C       0.002149    1.212876   -0.170590
C       1.308535    1.989155   -0.017505
C       1.461416    2.779439   -1.226781
C       1.490037    3.401201   -2.256219
C       1.644597    2.647807    1.374881
C       1.888416    1.204854    1.856875
N       2.558324    1.193928    0.461108
C       3.104422    2.576241    0.891720
H      -0.837803    1.857082   -0.511255
H       1.543045    3.957362   -3.159967
H       1.106137    3.470918    1.855592
H       2.612837    1.076591    2.663134
H       1.055427    0.513547    1.954681
H       3.415357    3.209120    0.060551
H       3.879480    2.498749    1.656676
