18

C      -0.210973    1.285037   -0.486476
C      -0.038819   -0.042511    0.264345
O       0.435789    0.186143    1.566778
C      -1.340059   -0.828139    0.309471
N      -1.889118   -1.066468    1.424613
O      -1.740606   -1.172382   -0.940632
C      -3.014855   -1.805395   -1.091573
C      -3.047055   -3.185918   -0.619136
C      -3.083676   -4.324015   -0.236836
H       0.739609    1.823774   -0.478253
H      -0.515508    1.117164   -1.522714
H      -0.960951    1.905886    0.013118
H       0.683971   -0.664070   -0.288478
H      -0.243839   -0.174236    2.158784
H      -2.731785   -1.633093    1.383799
H      -3.785706   -1.209116   -0.585754
H      -3.215707   -1.768365   -2.165620
H      -3.112728   -5.330597    0.102249
