19

C       0.084542    1.609040    0.258973
C       1.579474    1.517287   -0.208162
C       1.480519    0.033641    0.079416
C       2.233945   -0.914507    0.616753
C       1.594870   -2.177453    1.148767
C       0.138691   -1.984079    1.555173
O      -0.159443   -0.846396    2.370293
C      -0.676404   -0.870205    1.035507
C      -0.029351    0.062352    0.045475
H       0.015897    1.860591    1.319264
H      -0.585617    2.249532   -0.318318
H       1.678825    1.744390   -1.275883
H       2.326341    2.093625    0.343299
H       3.302879   -0.781198    0.759401
H       1.637552   -2.998821    0.417825
H       2.154275   -2.534074    2.023410
H      -0.373373   -2.895760    1.866162
H      -1.759196   -0.990829    0.981159
H      -0.429013   -0.153847   -0.954659
