21

C      -0.066034    1.565584    0.093224
C      -0.006973    0.037695    0.017937
C       0.707533   -0.470066   -1.237918
C       0.762183   -2.011251   -1.305125
C       1.437671   -2.513271   -2.491980
C       2.003654   -2.909189   -3.486905
C       2.638864   -3.356812   -4.603458
C       3.204145   -3.754782   -5.597101
C       3.882156   -4.232609   -6.788892
H       0.939461    2.000500    0.101224
H      -0.599349    1.983825   -0.767523
H      -0.580997    1.900377    0.998951
H       0.501843   -0.354788    0.908529
H      -1.025790   -0.371342    0.046091
H       0.202048   -0.092683   -2.134748
H       1.730215   -0.076117   -1.272010
H       1.266475   -2.396125   -0.407799
H      -0.260185   -2.412675   -1.269685
H       3.910192   -5.327935   -6.817677
H       3.376220   -3.889744   -7.698734
H       4.916826   -3.873170   -6.828925
