17

C       0.010862    1.526766   -0.037678
C       0.001605   -0.005827   -0.038545
C      -1.426270   -0.562739   -0.037397
N       0.685929   -0.476669   -1.239868
C       1.708727   -1.180782   -1.094995
O       2.377549   -1.641286   -2.202080
C       3.488702   -2.403585   -2.007999
O       4.122641   -2.839651   -2.915299
H       1.034258    1.912749   -0.023957
H      -0.484256    1.909539   -0.935026
H      -0.514260    1.910442    0.842454
H       0.517331   -0.360423    0.871852
H      -1.960884   -0.237596   -0.934816
H      -1.420606   -1.656483   -0.023319
H      -1.972342   -0.209322    0.842659
H       2.155130   -1.488099   -0.139495
H       3.721716   -2.562313   -0.939407
