16

O      -0.123983   -0.006151   -0.087871
C       0.051589    1.186230   -0.035384
O      -1.158744    2.066131    0.093602
C      -0.689426    3.318072    0.181526
C      -1.365533    4.622034    0.056928
N      -0.181914    5.513493    0.461060
H      -0.244442    6.446313    0.041607
H      -0.183945    5.600070    1.475603
C       1.118321    4.789451    0.043101
C       0.674338    3.375081    0.092899
C       1.169820    2.069222   -0.039603
H      -1.658343    4.964726   -0.957888
H      -2.208388    4.830228    0.728429
H       1.371227    5.167069   -0.959033
H       1.908450    5.102282    0.734177
H       2.189433    1.723804   -0.069390
