15

N       0.534232    0.222381   -0.998114
C      -0.033405    0.166884    0.233694
O       0.480900    0.580103    1.255651
C      -1.381882   -0.491263    0.257230
C      -2.363268   -0.439679    1.435739
C      -2.643833   -1.943434    1.160506
O      -3.243076   -2.793668    1.748647
C      -1.696899   -1.964387   -0.025595
N      -2.046627   -0.889747   -0.965914
H       1.434318    0.660382   -1.097342
H       0.005963   -0.053021   -1.809345
H      -1.870621   -0.317751    2.403382
H      -3.186074    0.275901    1.351342
H      -1.061358   -2.768812   -0.376294
H      -3.039416   -0.663271   -0.972062
