17

N       0.517784    1.421752   -0.154214
C       0.203142    0.079535   -0.068508
C      -1.011814   -0.572269    0.041001
N      -0.793726   -1.913550    0.028665
N       0.474008   -2.148967   -0.090645
N       1.110085   -0.933304   -0.141442
C       2.559756   -0.911830   -0.151322
C       3.188519   -0.397054   -1.440379
O       3.102732    1.026673   -1.448002
H       1.490976    1.628865   -0.336489
H       0.082024    2.012163    0.536991
H      -2.000435   -0.149774    0.116258
H       2.927256   -0.306021    0.685883
H       2.861251   -1.947621    0.016693
H       4.241126   -0.714208   -1.468371
H       2.672431   -0.837544   -2.302438
H       3.181447    1.341590   -2.352808
