20

C       0.101025    1.564566    0.168025
C      -0.001158    0.032999    0.033374
C      -1.401576   -0.479889   -0.065679
C      -2.210412   -0.714174   -1.170473
N      -1.841117   -0.564214   -2.516725
C      -2.882624   -0.768270   -3.510019
C      -3.430769   -1.188880   -0.632336
N      -3.394549   -1.248788    0.699879
N      -2.169138   -0.806103    1.014188
H       1.146728    1.883525    0.223628
H      -0.361983    2.067995   -0.686728
H      -0.410367    1.915168    1.069876
H       0.543836   -0.292953   -0.860454
H       0.504735   -0.439767    0.884821
H      -1.334778    0.295252   -2.680512
H      -3.229984   -1.806078   -3.469889
H      -3.761228   -0.114451   -3.380381
H      -2.466093   -0.594894   -4.505492
H      -4.322565   -1.496497   -1.156679
H      -1.899009   -0.766708    1.982387
