20

N       0.039442    1.168962    0.165458
C      -0.042730   -0.086375    0.267415
O      -1.167342   -0.721992   -0.111821
C      -1.142084   -2.150575   -0.071037
C      -2.570443   -2.657343   -0.228017
C      -2.610010   -4.210724   -0.227469
C      -3.315620   -4.557341    1.106486
O      -3.247404   -3.383184    1.901072
C      -3.431505   -2.301971    1.000355
H       0.942983    1.485647    0.511010
H       0.732578   -0.760938    0.657858
H      -0.506188   -2.531376   -0.881474
H      -0.728495   -2.496840    0.886465
H      -2.988905   -2.233276   -1.144245
H      -3.152792   -4.607705   -1.087981
H      -1.598908   -4.628854   -0.261277
H      -4.366122   -4.835164    0.924063
H      -2.838661   -5.368751    1.661633
H      -3.120846   -1.380041    1.495892
H      -4.491669   -2.207996    0.714482
