17

C       0.211020    1.450172    0.210384
C      -0.115051   -0.003446   -0.108917
C       0.855280   -0.585540   -1.130757
O       0.472051   -1.856083   -1.635995
C      -0.040590   -2.704604   -0.659180
O       0.775053   -2.744554    0.505841
C       0.601953   -1.808442    1.476406
O       1.040899   -1.976942    2.571812
O      -0.123872   -0.709110    1.164724
H       1.247056    1.550789    0.547722
H       0.065353    2.077482   -0.674100
H      -0.444020    1.810224    1.006153
H      -1.135305   -0.078598   -0.503227
H       0.897732    0.083013   -1.994763
H       1.862937   -0.634191   -0.694151
H      -1.063110   -2.428871   -0.369150
H      -0.025479   -3.714152   -1.071699
