18

O       0.133888    1.375330    0.243100
C       0.013648   -0.013439    0.079152
C      -1.420683   -0.522140   -0.028967
C      -2.376101    0.252358   -0.983920
C      -2.507746   -1.024190   -1.866288
C      -1.346163   -1.668330   -1.078927
O      -0.078946   -1.510853   -1.758645
C       0.626004   -0.480695   -1.233709
N       1.645148    0.072342   -1.733448
H       0.910441    1.628822   -0.278348
H       0.528024   -0.548229    0.896153
H      -1.862180   -0.792905    0.929472
H      -3.297944    0.620713   -0.532205
H      -1.877133    1.089806   -1.475035
H      -3.448896   -1.557428   -1.708600
H      -2.336636   -0.919861   -2.939639
H      -1.431619   -2.713077   -0.775522
H       1.904300   -0.332286   -2.632882
