18

C       0.302237    0.855099   -0.463140
O      -0.380247   -0.096563    0.337887
C       0.423407   -0.617963    1.344682
C       0.203343   -2.048975    1.772859
C      -0.562440   -2.963137    0.827843
C       0.181241   -2.823983   -0.520944
O       1.463258   -2.239725   -0.249234
C       1.463960   -1.672688    1.030733
H       1.168448    0.403607   -0.961935
H      -0.408891    1.209269   -1.213191
H       0.641873    1.712923    0.136366
H       0.674953    0.091715    2.137034
H       0.198842   -2.278973    2.831879
H      -0.513763   -3.988031    1.208253
H      -1.615964   -2.690208    0.726103
H       0.352529   -3.785836   -1.015933
H      -0.377128   -2.173187   -1.199695
H       2.454480   -1.644183    1.471654
