17

O       0.041088    0.094357    0.651210
C      -0.024484    1.161684    0.109181
C      -1.321883    1.907116   -0.163233
C      -1.113177    3.238704   -0.863400
C      -0.077446    3.269117   -2.035626
C       0.089885    4.787065   -1.758624
C       0.064720    4.132270   -0.351673
C       1.005048    3.050923   -0.945977
O       1.108473    1.783603   -0.305132
H      -1.960594    1.239555   -0.752763
H      -1.829436    2.035274    0.799629
H      -2.052942    3.765438   -1.054031
H      -0.151496    2.767800   -3.001059
H       1.029486    5.247990   -2.074207
H      -0.768773    5.413792   -2.007379
H       0.154041    4.622835    0.617982
H       2.028871    3.343408   -1.182313
