22

C      -0.048749    1.456079    0.133560
C       0.010150   -0.064278   -0.055428
C       0.834270   -0.472928   -1.303143
C       2.228653   -0.759178   -0.725932
C       1.874721   -1.334052    0.645678
O       0.720681   -0.615902    1.074470
C      -1.399926   -0.641842   -0.082035
C      -1.677316   -2.022461    0.373612
N      -2.127504   -0.864723    1.174117
H       0.955846    1.888816    0.109691
H      -0.647343    1.923029   -0.655303
H      -0.503682    1.699379    1.097617
H       0.413801   -1.380037   -1.749180
H       0.837071    0.306481   -2.068611
H       2.817697   -1.446812   -1.337751
H       2.799769    0.167857   -0.612187
H       1.653402   -2.410408    0.572439
H       2.657625   -1.199223    1.398302
H      -2.019576   -0.228709   -0.877096
H      -2.472422   -2.600186   -0.089333
H      -0.845680   -2.606134    0.756087
H      -1.463135   -0.748031    1.938144
