24

C       0.121998    1.572840    0.814558
C      -0.019555    0.173811    0.250737
C       0.217772   -0.165659   -1.188378
C       0.618194    0.855703   -2.238503
C       1.325402    0.223213   -3.423193
C       0.528728   -0.393392   -4.546037
C       1.295240    0.887255   -4.775144
N       1.117995   -0.663985   -0.139976
C       2.478076   -0.164342   -0.017538
H       0.842511    2.190771    0.276489
H      -0.844950    2.086400    0.778481
H       0.432769    1.535421    1.864747
H      -0.793023   -0.399843    0.763676
H      -0.395255   -0.962406   -1.612448
H      -0.293038    1.355600   -2.595309
H       1.247261    1.644886   -1.815558
H       2.249854   -0.288734   -3.168830
H       0.895867   -1.304328   -5.005510
H      -0.553758   -0.330840   -4.492968
H       0.726263    1.806331   -4.874789
H       2.187316    0.851394   -5.390707
H       2.633013    0.894259   -0.270841
H       2.812580   -0.309937    1.015166
H       3.131068   -0.761032   -0.663350
