21

C       0.219980    1.348174   -0.092666
O       0.014684   -0.063157    0.036419
C      -1.265711   -0.477464   -0.093016
O      -2.182717    0.277541   -0.304298
C      -1.371164   -1.976888    0.093990
C      -0.496571   -2.721558   -0.920187
C      -1.134915   -2.459591    1.568594
C      -2.425466   -3.315827    1.463780
C      -2.824144   -2.522844    0.189862
H       1.289979    1.507281    0.043020
H      -0.096164    1.696591   -1.079295
H      -0.346993    1.892480    0.667040
H       0.552867   -2.434483   -0.817574
H      -0.575360   -3.802567   -0.765851
H      -0.814434   -2.507417   -1.946497
H      -0.192168   -2.979915    1.754592
H      -1.230153   -1.646037    2.292326
H      -2.211586   -4.367436    1.256675
H      -3.114842   -3.268624    2.309183
H      -3.532848   -1.717789    0.390504
H      -3.180203   -3.097651   -0.668744
