18

C       0.005461    1.339126   -0.111648
O      -0.052291   -0.063286   -0.013878
C       0.752792   -0.573404    1.021234
C       0.670966   -2.083040    1.015577
O       1.377831   -2.556747   -0.139120
C       1.393455   -3.887651   -0.318028
N       0.828928   -4.692124    0.492387
C       2.114410   -4.257271   -1.506692
C       2.706840   -4.619381   -2.487940
H       1.027315    1.692764   -0.321628
H      -0.647103    1.636006   -0.936014
H      -0.343168    1.829413    0.811784
H       1.801690   -0.256542    0.898308
H       0.408773   -0.207344    2.004318
H       1.124428   -2.501579    1.920190
H      -0.369724   -2.417764    0.972275
H       0.952716   -5.653098    0.182469
H       3.230195   -4.934565   -3.357222
