19

C      -0.088107    1.474192   -0.016763
C       0.038566   -0.028171    0.036431
C      -0.768125   -0.817228    1.032545
C       0.746497   -0.769495    1.160101
C       1.458985   -1.907848    0.515000
C       1.255747   -1.940434   -0.801948
C       0.416562   -0.756895   -1.276341
C      -0.730935   -1.138580   -2.095889
C      -1.677099   -1.454556   -2.767341
H       0.827838    1.939697   -0.399398
H      -0.914371    1.774097   -0.671929
H      -0.284567    1.890077    0.976270
H      -1.348970   -0.240812    1.746042
H      -1.221246   -1.754434    0.727380
H       1.189220   -0.246688    2.001430
H       2.037775   -2.633940    1.075009
H       1.603770   -2.700725   -1.490120
H       1.047906   -0.085532   -1.880067
H      -2.512208   -1.732459   -3.361102
