20

C       0.492417    0.796388   -0.708276
C      -0.351580    0.423590    0.520878
C       0.465931   -0.194939    1.623263
N       0.599535    0.361137    2.754685
C       1.458931   -0.248203    3.762754
C       2.429791   -1.277496    3.192740
O       2.955438   -2.038033    4.267819
C       1.652791   -2.161773    2.219236
O       1.016109   -1.378054    1.208360
H       0.988919   -0.084184   -1.123615
H      -0.138957    1.233409   -1.487162
H       1.261172    1.529850   -0.445411
H      -0.840674    1.305603    0.937927
H      -1.129768   -0.289721    0.223599
H       2.007595    0.547798    4.276954
H       0.840754   -0.738625    4.526652
H       3.228949   -0.758464    2.641868
H       3.696749   -2.558167    3.941508
H       2.303526   -2.867625    1.693917
H       0.898899   -2.732811    2.776814
