24

C      -0.080490    0.593097    2.301061
C       0.153716   -0.794110    1.691186
C       0.221698   -0.834720    0.148725
C       1.427925   -0.049423   -0.374152
O       1.394406   -0.039193   -1.794098
C       0.280731   -2.283468   -0.321050
C      -0.926285   -3.161938   -0.285151
N      -0.306166   -2.805808   -1.553402
C      -1.052787   -1.934682   -2.448721
H       0.758057    1.273656    2.126263
H      -0.979705    1.060882    1.884500
H      -0.217741    0.519383    3.384522
H       1.075507   -1.227068    2.103828
H      -0.655737   -1.461449    2.006560
H      -0.683243   -0.357594   -0.246646
H       1.408394    0.977190    0.018558
H       2.350765   -0.526815   -0.002963
H       2.185834    0.404171   -2.111989
H       1.240264   -2.753190   -0.094767
H      -0.858746   -4.204386    0.017756
H      -1.873876   -2.681604   -0.035749
H      -1.758716   -1.256315   -1.941840
H      -0.351458   -1.326815   -3.022974
H      -1.632523   -2.561872   -3.134245
