19

C      -0.064535    1.539306    0.037290
C       0.091381    0.042052   -0.003076
N      -0.743801   -0.825727    0.882030
C       0.732781   -0.776036    1.061260
C       1.465426   -1.908986    0.385359
C       2.754099   -2.427819    0.925972
N       1.550179   -3.267598    0.954978
C       1.157126   -1.750554   -1.067428
C       0.417044   -0.662518   -1.290930
H       0.806135    2.037505   -0.402276
H      -0.949350    1.857191   -0.526481
H      -0.175475    1.898388    1.065777
H      -1.158994   -0.234691    1.602983
H       1.136738   -0.332213    1.966264
H       3.533309   -2.765424    0.247634
H       3.120766   -1.990258    1.852663
H       1.134677   -3.272032    1.883481
H       1.477779   -2.478346   -1.802831
H       0.051446   -0.325418   -2.253876
