18

C       0.038377    1.414333   -0.108699
C       1.314025    0.653140   -0.047214
C       1.945135    0.401549    1.336801
O       1.639331    1.453445    2.259051
C       0.460738    1.132181    2.995547
C       0.059839   -0.273150    2.595177
C       1.226185   -0.869927    1.854000
C      -0.099511   -0.785884    1.154194
N       0.027306   -0.056708   -0.106153
H      -0.279097    1.957830    0.770573
H      -0.277132    1.857644   -1.050029
H       1.954606    0.573936   -0.922706
H       3.031947    0.311546    1.282954
H       0.697306    1.147097    4.068953
H      -0.313246    1.890677    2.821716
H      -0.474035   -0.857708    3.337509
H       1.761673   -1.771253    2.124392
H      -0.740515   -1.656766    1.068826
