19

C      -0.107350    1.473421    0.010917
C       1.268350    0.836370   -0.006017
C       0.034781   -0.023548    0.001549
C      -0.358868   -0.904142    1.151230
C      -1.580597   -1.730508    0.784247
C      -0.206300   -2.366845    0.767314
C      -0.221632   -2.358598   -0.784282
C      -1.595888   -1.722171   -0.767348
C      -0.381488   -0.891885   -1.149487
H      -0.436510    1.953288    0.927028
H      -0.454446    1.962983   -0.893367
H       1.847761    0.896892   -0.921712
H       1.865687    0.887205    0.898683
H      -0.206325   -0.602065    2.180813
H      -2.420324   -1.909947    1.441180
H       0.213278   -3.129367    1.408730
H       0.185091   -3.114219   -1.441938
H      -2.448425   -1.894615   -1.409488
H      -0.249182   -0.578839   -2.178593
