19

O       0.020660    0.034695    0.105329
C       0.001749    1.234838    0.041198
C      -1.252819    2.140886    0.028561
C      -0.628345    3.556729    0.022817
C       0.593232    3.314925   -0.898040
C       1.205196    2.193274   -0.031235
C       1.220262    2.806909    1.379193
C       1.385146    4.298820    1.550981
C       0.001956    3.722611    1.410713
H      -1.832209    1.936376   -0.879174
H      -1.896884    1.930053    0.886931
H      -1.304769    4.354505   -0.289316
H       0.298434    2.960145   -1.889986
H       1.241720    4.180886   -1.029988
H       2.127483    1.721384   -0.367641
H       1.461422    2.153966    2.209708
H       1.662659    4.616571    2.550662
H       1.823908    4.909470    0.770761
H      -0.662562    3.739801    2.267863
