15

O      -0.246874    1.420119    0.091294
N       0.016815    0.048663   -0.049317
C      -1.061411   -0.611291   -0.126129
C      -2.539780   -0.359098    0.074435
N      -2.787062   -1.852029    0.175309
C      -2.390936   -2.408353   -1.102876
C      -1.274075   -2.077081   -0.161509
C      -0.461655   -3.131657    0.498733
O      -0.782070   -4.293842    0.530780
H       0.638349    1.795115    0.154530
H      -2.764417    0.139586    1.019802
H      -3.092496    0.122972   -0.737429
H      -2.598460   -3.470546   -1.190711
H      -2.505597   -1.818210   -2.010166
H       0.473551   -2.762846    0.967815
