10

O      -0.087031    1.174014    0.009279
N       1.103296    2.054601    0.002549
N       2.235197    1.546305   -0.011103
C       2.343221    0.183412   -0.019514
N       3.418648   -0.555148   -0.033313
C       2.865714   -1.842506   -0.035466
N       1.550901   -1.962139   -0.023522
C       1.159092   -0.650846   -0.012441
N      -0.049209   -0.168523    0.001738
H       3.521011   -2.704413   -0.046113
