18

O       0.159926    0.077975    0.509931
C       0.085567    1.196266    0.058650
N       1.101952    1.858884   -0.603034
C       2.486017    1.829363   -0.168475
C       3.349997    2.339354   -1.336182
C       2.527925    3.656084   -1.301206
C       3.075989    5.047455   -1.406072
C       2.084892    4.534570   -2.428848
C       1.698551    3.118049   -0.151483
H      -0.850619    1.787757    0.057393
H       2.771419    1.186355    0.653667
H       4.394265    2.490052   -1.051366
H       3.296275    1.742994   -2.250062
H       2.734614    5.788897   -0.690424
H       4.112237    5.165290   -1.706519
H       2.453054    4.304463   -3.423197
H       1.073711    4.927386   -2.408617
H       1.272805    3.655297    0.688869
