13

N       0.137187    1.333626    0.184157
C      -0.052344   -0.019046    0.064421
C      -1.200254   -0.715857    0.026972
C      -1.177129   -2.168966   -0.008126
N      -2.246930   -2.864611   -0.030677
N       0.117456   -2.767754   -0.024536
C       1.114397   -2.007545   -0.001392
F       2.342364   -2.462655   -0.021755
O       1.170523   -0.661086    0.045903
H       0.999075    1.681168   -0.211279
H      -0.668417    1.899980   -0.032877
H      -2.155342   -0.209399    0.030370
H      -1.999597   -3.855031   -0.058798
