8

N      -0.094564    1.293149    0.010182
C      -0.018706    0.040532    0.002357
O      -1.175961   -0.691439    0.009416
C      -1.077368   -2.051896    0.001395
O      -2.036385   -2.753847    0.006852
H       0.837443    1.704232    0.003544
H       0.887561   -0.575898   -0.009808
H      -0.031121   -2.408011   -0.010420
