21

C      -0.786021    1.160766   -0.051146
C       0.142183   -0.045199   -0.035040
C       1.543089    0.087932   -0.714229
C       2.125315   -0.681134    0.468466
C       3.057772   -1.808141    0.475775
O       3.441497   -0.518536    0.976309
C       0.848060   -0.489179    1.298019
C       1.002705    0.561144    2.386387
O      -0.259649    0.724435    3.018873
H      -0.289073    2.060720    0.324758
H      -1.117861    1.371630   -1.074044
H      -1.669005    0.989269    0.570127
H      -0.384170   -0.910076   -0.451348
H       1.671341   -0.338317   -1.712274
H       1.896949    1.124287   -0.726988
H       2.960237   -2.590827    1.227674
H       3.548224   -2.110857   -0.448951
H       0.435717   -1.394012    1.754651
H       1.769519    0.219222    3.097445
H       1.364322    1.510116    1.960254
H      -0.169322    1.398454    3.698838
