21

C       0.430463    1.334273   -0.200291
O       0.023100   -0.006593   -0.003732
C       0.429524   -0.544710    1.214574
C       1.859372   -0.997782    1.381716
C       0.731524   -2.015212    1.298548
C       0.149683   -2.548298    2.596662
C      -0.136694   -1.298127    3.469702
O       0.967878   -0.947747    4.305125
C      -0.341338   -0.144180    2.469035
H       1.522538    1.439210   -0.131699
H       0.105552    1.622632   -1.202913
H      -0.029315    2.016636    0.528914
H       2.484566   -0.923302    0.498208
H       2.360215   -0.836242    2.328824
H       0.675870   -2.624707    0.403911
H      -0.787645   -3.079440    2.391334
H       0.809112   -3.250216    3.122251
H      -1.030086   -1.446347    4.091741
H       1.166000   -1.706152    4.863903
H      -0.021334    0.799903    2.919156
H      -1.400359   -0.054704    2.202313
