18

C      -0.034223    1.550799   -0.078087
C       1.510786    1.549973    0.092990
C       1.413460    0.098643    0.616761
C      -0.004922   -0.001105   -0.001568
C       2.486236   -1.024261    0.414123
C       2.532699   -1.193676    1.938124
O       2.892601    0.078226    2.494509
C       1.524022   -0.142085    2.132694
H      -0.541322    1.992987    0.783822
H      -0.442420    2.000039   -0.985947
H       2.025271    1.593542   -0.872173
H       1.962819    2.285516    0.762350
H      -0.777847   -0.503123    0.588293
H       0.023679   -0.459201   -0.995142
H       2.073483   -1.893150   -0.106999
H       3.431297   -0.730790   -0.050994
H       2.762608   -2.073012    2.528610
H       0.775075   -0.001737    2.905407
