19

C       0.109333    1.493882    0.080373
C      -0.078753    0.012914   -0.000019
C      -0.203931   -0.748520   -1.100447
C      -0.122189   -2.198768   -0.702604
C      -0.522667   -3.277807   -1.668463
O       1.308871   -2.382721   -0.250094
C       0.890341   -2.149698    1.067456
C      -0.037161   -0.877059    1.191209
C      -0.563570   -2.236201    0.798389
H       1.094197    1.742343    0.495455
H       0.030470    1.960929   -0.904813
H      -0.634866    1.957784    0.739724
H      -0.152869   -0.406823   -2.127210
H       0.078742   -3.213051   -2.580821
H      -0.375508   -4.268151   -1.229818
H      -1.576723   -3.165139   -1.943268
H       1.533887   -2.475931    1.875679
H      -0.197766   -0.503344    2.196360
H      -1.384164   -2.779954    1.250051
