19

C      -0.025549    1.560083   -0.067295
C       0.067721    0.041188    0.028006
C      -1.107765   -0.630205   -0.479065
C      -2.097759   -1.161372   -0.909378
C       1.340962   -0.753659   -0.207211
C       2.573255    0.003118    0.295383
C       1.956049   -0.043265    1.740358
O       1.736210    1.151957    2.457934
C       0.706123   -0.716082    1.188336
H       0.817711    2.051928    0.414463
H      -0.078621    1.870594   -1.115934
H      -0.935460    1.905557    0.431943
H      -2.971380   -1.631179   -1.287574
H       1.352824   -1.576268   -0.910242
H       3.498283   -0.572476    0.216069
H       2.738692    0.997449   -0.127574
H       2.514048   -0.763489    2.353683
H       2.577991    1.443858    2.822364
H       0.140848   -1.482032    1.704268
