11

F       0.005005    0.067972   -0.120138
C      -0.026107    1.401120   -0.020517
F       1.229291    1.850310   -0.122362
F      -0.715153    1.873120   -1.069535
C      -0.691331    1.859659    1.267944
C      -0.001767    1.387316    2.538499
F       1.255501    1.835220    2.621130
F      -0.670493    1.848190    3.605461
F       0.030784    0.053178    2.623284
H      -0.713509    2.951205    1.274039
H      -1.718206    1.488889    1.275717
