17

C      -0.009634    1.480972   -0.142864
O       1.332345    1.525675    0.389178
C       1.420451    0.084952    0.470343
C      -0.017934   -0.040803   -0.008840
C      -1.095686   -0.961602    0.389515
C      -2.540839   -0.507652    0.183310
N      -2.659296   -0.235509   -1.262158
C      -1.543746   -0.530442   -1.793609
N      -0.489377   -1.051757   -0.976510
H      -0.721813    2.029265    0.486224
H      -0.064835    1.866863   -1.168110
H       2.166712   -0.330374   -0.217834
H       1.627332   -0.259931    1.490858
H      -0.876906   -1.786704    1.060339
H      -3.252748   -1.289987    0.468236
H      -2.808649    0.392447    0.748926
H      -1.351489   -0.430653   -2.857806
