18

C      -0.437149   -1.110691   -0.810442
C      -0.213456   -0.016799   -0.363838
C       0.059786    1.304916    0.187966
C      -0.306106    1.438101    1.696927
C       0.584251    2.582866    2.226218
C       1.840603    2.530972    1.367692
C       2.477804    1.181081    1.138378
C       1.526289    1.744978    0.115083
H      -0.633003   -2.074542   -1.210137
H      -0.528350    2.041227   -0.377288
H      -1.372898    1.624473    1.838935
H      -0.078395    0.499037    2.208069
H       0.089492    3.551099    2.082285
H       0.785700    2.480961    3.298108
H       2.473799    3.410523    1.326261
H       3.529140    1.169280    0.873184
H       2.169698    0.332527    1.740712
H       1.914938    2.033126   -0.854759
