15

O       0.047580    1.395117    0.067632
C      -0.047525    0.010389   -0.007960
C      -1.344907   -0.734634    0.011514
C      -2.586842    0.087482   -0.325309
N      -2.253915    0.690737   -1.613760
C      -1.217272    0.048366   -2.281688
O      -0.974311    0.156201   -3.460742
C      -0.476075   -0.754323   -1.252240
H      -0.598078    1.779420   -0.539954
H       0.775083   -0.439983    0.537385
H      -1.467852   -1.606736    0.642214
H      -3.473237   -0.555636   -0.396949
H      -2.783581    0.856063    0.431813
H      -2.954876    1.156840   -2.170298
H       0.093549   -1.605873   -1.599051
