16

N      -0.046418   -1.124901   -0.225298
C      -0.039279    0.025173   -0.110681
C      -0.012273    1.478446    0.059731
O      -0.368315    2.162564   -1.167448
C       0.838745    2.962417   -1.117766
C       1.365178    2.213566    0.126142
C       1.401452    2.969957    1.465115
C       0.004843    2.784796    2.012013
C      -0.752996    1.970449    1.278109
H       1.428905    2.847080   -2.032353
H       0.616669    4.024782   -0.959528
H       2.242688    1.596989   -0.060258
H       2.153978    2.560180    2.149990
H       1.652936    4.029625    1.331083
H      -0.325350    3.275485    2.921305
H      -1.777602    1.685498    1.480048
