22

C       0.088147    1.524563   -0.025948
C      -0.031865   -0.015026    0.015425
C      -1.510076   -0.416731    0.083953
C       0.711019   -0.657289   -1.186269
C       2.185570   -0.752299   -0.750806
C       2.110961   -1.105274    0.747970
C       0.777350   -0.550012    1.196943
N       0.312065   -0.507068    2.379560
O       1.226527   -1.042645    3.309615
H       1.130355    1.852833   -0.089333
H      -0.445054    1.924825   -0.895468
H      -0.343935    1.963180    0.877920
H      -2.049971   -0.050389   -0.796265
H      -1.620832   -1.504851    0.123596
H      -1.983696   -0.000689    0.977065
H       0.313323   -1.664950   -1.359632
H       0.570896   -0.089540   -2.111034
H       2.750372   -1.486216   -1.331253
H       2.684586    0.213372   -0.886293
H       2.113510   -2.191052    0.908919
H       2.935442   -0.709785    1.347606
H       0.746725   -0.950316    4.139336
