16

C       0.064655    1.512978    0.032742
C      -0.012024    0.018920    0.025932
C      -0.248558   -0.816415   -1.020731
O      -0.241062   -2.114080   -0.626938
C       0.008227   -2.136542    0.722458
C       0.068593   -3.451734    1.405769
C       0.153780   -0.854507    1.157772
O       0.411633   -0.495347    2.449825
H       1.045498    1.871993    0.370706
H      -0.100656    1.918662   -0.968692
H      -0.690406    1.959554    0.692750
H      -0.433845   -0.639871   -2.067999
H       0.860391   -4.090347    0.996095
H       0.273492   -3.293379    2.467162
H      -0.875504   -4.002735    1.318129
H       0.469038    0.463204    2.496867
