17

C       0.019782    1.286500    0.855756
C      -0.152928    0.373873   -0.359915
O       0.851973   -0.630110   -0.410747
C      -1.558022   -0.246595   -0.397498
N      -1.894186   -1.038910   -1.613926
C      -2.292337   -2.237429   -0.828844
C      -1.733155   -1.541955    0.417874
O      -1.451331   -1.875265    1.531741
H       1.039753    1.678434    0.884614
H      -0.676368    2.131104    0.824940
H      -0.166731    0.730620    1.781961
H      -0.021463    0.949035   -1.284007
H       0.880106   -1.056705    0.453881
H      -2.311212    0.508850   -0.127592
H      -2.648919   -0.641871   -2.160193
H      -3.372341   -2.425587   -0.749902
H      -1.793111   -3.165923   -1.126420
