21

C       0.432985    1.001955   -0.427576
C      -0.485362    0.350205    0.612628
C       0.281306   -0.404015    1.676724
C      -0.268342   -1.645927    2.362849
O      -1.358534   -2.280992    1.729735
C      -0.774620   -3.105676    0.736971
O       0.398235   -2.451310    0.294765
C       0.904741   -1.770072    1.436996
C       2.314681   -2.129960    1.810606
H       1.012072    0.241355   -0.960266
H      -0.146393    1.565084   -1.166180
H       1.140033    1.696697    0.039740
H      -1.099793    1.116574    1.101450
H      -1.182791   -0.329362    0.117048
H       0.874007    0.225311    2.340017
H      -0.222054   -1.781872    3.438917
H      -0.527892   -4.095522    1.160011
H      -1.469579   -3.209055   -0.101061
H       3.011822   -1.841313    1.016950
H       2.613400   -1.611473    2.726513
H       2.414429   -3.207918    1.975880
