16

N       0.013130    1.498339    0.181936
C      -0.023496    0.101366   -0.024982
C       0.573749   -0.747065   -1.161886
O      -0.593943   -1.617152   -1.160935
C      -1.192741   -0.844217   -0.143687
C      -0.342049   -0.867753    1.129754
N       0.518483   -1.986526    1.395557
C      -0.987221   -0.245839    2.267553
N      -1.474671    0.178692    3.227886
H       0.899571    1.810704    0.563787
H      -0.173235    2.014641   -0.670613
H       0.636077   -0.195828   -2.106981
H       1.496077   -1.296098   -0.959732
H      -2.269241   -0.721221   -0.131185
H       1.178555   -1.765547    2.133956
H      -0.018785   -2.794667    1.692291
