19

C       0.038372    1.515076    0.108766
C       0.050077    0.023343   -0.015452
C      -0.937266   -0.918828    0.714905
O      -1.045622   -2.135462   -0.023197
C       0.396403   -2.030624   -0.227235
C       0.522236   -1.034979    0.990217
C       0.535808   -0.833248   -1.169785
C       0.306701   -0.755465   -2.641565
C       1.700278   -0.550652   -2.064069
H       1.034486    1.939771   -0.062011
H      -0.649631    1.968715   -0.614051
H      -0.283434    1.825260    1.108803
H      -1.775840   -0.588664    1.315008
H       0.890077   -2.986958   -0.389536
H       1.136573   -0.991343    1.879149
H       0.105006   -1.675492   -3.180775
H      -0.207423    0.113817   -3.039591
H       2.114293    0.452983   -2.077292
H       2.436928   -1.333010   -2.220447
