20

C       0.531324    1.697269   -0.321328
C       1.805552    1.235523    0.406887
C       0.995187   -0.041230    0.738497
C       1.507939   -1.380785    0.160655
C       2.141377   -2.088395    1.338744
N       3.039876   -1.206268    2.121684
C       1.655442   -1.454773    2.590765
C       0.705191   -0.334084    2.228921
O      -0.157561    0.477669    0.028482
H       0.031901    2.580803    0.094910
H       0.615253    1.820191   -1.408137
H       2.680701    1.072063   -0.222798
H       2.100196    1.829011    1.272949
H       0.645114   -1.953720   -0.199851
H       2.189579   -1.233484   -0.682557
H       2.367675   -3.148268    1.284161
H       3.680840   -1.782196    2.661906
H       1.507184   -2.026254    3.501232
H       0.816692    0.556621    2.854660
H      -0.331767   -0.679969    2.317065
