20

C       0.036284    1.559191   -0.017431
N      -0.019500    0.112817    0.085121
C      -1.354521   -0.466328    0.363599
C      -0.985426   -1.401033    1.549069
C      -0.235619   -0.384432    2.481330
C       0.747999   -0.469432    1.181521
C       0.340277   -1.989453    1.202712
C      -0.549478   -3.112671    0.576381
O      -1.653936   -2.693669    1.482513
H       1.070156    1.874502   -0.193421
H      -0.561601    1.885502   -0.874056
H      -0.335750    2.092919    0.876967
H      -2.085162    0.291290    0.675964
H      -1.762399   -0.995890   -0.501689
H      -0.693113    0.585879    2.696954
H       0.196395   -0.825327    3.378400
H       1.783183   -0.129106    1.230896
H       0.776340   -2.426713    2.102961
H      -0.839954   -3.001980   -0.471034
H      -0.241759   -4.139526    0.784807
