23

C      -0.164049    1.746284   -0.000898
C      -0.082716    0.264626    0.382593
C      -1.366516   -0.490467    0.051159
C      -1.688651   -0.766515   -1.433652
O      -1.770136   -2.194486   -1.205976
C      -1.424302   -2.037930    0.198585
C      -0.151183   -2.834871    0.508678
C      -0.459196   -4.324534    0.690748
O       0.809922   -2.637906   -0.519530
H       0.763670    2.269775    0.248733
H      -0.333361    1.872473   -1.076326
H      -0.983864    2.250637    0.523282
H       0.760402   -0.215695   -0.122736
H       0.112552    0.181339    1.459796
H      -2.208906   -0.017113    0.565869
H      -2.635808   -0.367254   -1.813141
H      -0.886020   -0.514930   -2.138896
H      -2.242431   -2.388096    0.841576
H       0.298520   -2.439593    1.427886
H      -0.971780   -4.718617   -0.193698
H       0.470250   -4.882809    0.827789
H      -1.101933   -4.494758    1.561141
H       0.313973   -2.753987   -1.342135
