20

C      -0.069456    1.549026    0.032464
C       0.023138    0.026671    0.001238
C       0.994738   -0.598339   -1.035803
C       2.346604   -0.117980   -0.456874
O       2.143360   -0.134308    0.972353
C       0.791941   -0.606124    1.175775
C       0.830583   -2.094240    0.817870
N      -0.289510   -2.567073   -0.029476
C       0.958143   -2.085921   -0.662536
H       0.884901    2.017044    0.285774
H      -0.398816    1.940749   -0.936012
H      -0.801629    1.869393    0.781226
H      -0.968627   -0.412290   -0.100822
H       0.827893   -0.346115   -2.084162
H       3.177741   -0.784077   -0.719293
H       2.604856    0.898486   -0.776568
H       0.490314   -0.337796    2.188660
H       1.369301   -2.789511    1.451261
H      -0.275926   -3.584239   -0.036016
H       1.592695   -2.789230   -1.191873
