12

N      -0.016259    1.375734   -0.000917
C      -0.099406   -0.009026    0.004664
C      -1.117266   -0.886624    0.121926
N      -0.648896   -2.198020    0.077326
C       0.632500   -2.053972   -0.076441
N       1.567960   -3.044632   -0.257582
O       1.074189   -0.783262   -0.129814
H       0.514793    1.746942    0.780489
H       0.378984    1.745522   -0.859545
H      -2.164737   -0.659800    0.241533
H       1.232331   -3.949395    0.039316
H       2.489031   -2.824694    0.092569
