15

O      -0.059628    1.439210   -0.021794
C       0.012340    0.026730    0.002087
C      -1.419274   -0.494739   -0.001052
N      -1.419821   -1.899998   -0.372851
C      -0.386299   -2.640490   -0.884223
O      -0.439712   -3.833005   -1.047704
O       0.751416   -1.957210   -1.198972
C       0.711489   -0.530959   -1.235809
H       0.818316    1.792434    0.152561
H       0.537215   -0.339198    0.896826
H      -1.875149   -0.368200    0.986374
H      -1.996367    0.111326   -0.713169
H      -2.230201   -2.457898   -0.159316
H       0.193382   -0.181929   -2.139085
H       1.754179   -0.205300   -1.290197
