16

N       0.385301    0.160731    0.920790
C      -0.161007    0.191437   -0.318793
O       0.301712    0.802012   -1.265468
C      -1.485632   -0.584452   -0.432170
C      -1.631325   -1.285365   -1.806759
O      -1.701232   -2.690435   -1.466555
C      -1.704389   -2.743398   -0.113417
N      -1.861406   -4.000654    0.390842
N      -1.608922   -1.658233    0.559027
H       1.274034    0.607344    1.073220
H       0.008930   -0.485767    1.596326
H      -2.277532    0.161503   -0.286944
H      -2.550402   -1.019675   -2.334103
H      -0.772815   -1.109693   -2.456661
H      -1.592785   -4.755946   -0.219225
H      -1.606298   -4.107346    1.359070
