15

C       0.970629    0.956021    0.116054
C      -0.179631   -0.020457    0.100480
N      -1.063305   -0.116160    1.033209
O      -0.810810    0.800156    2.049888
C      -0.325253   -0.907948   -1.004047
C      -0.388698   -1.628571   -1.967321
C      -0.495221   -2.516774   -3.120418
C       0.571002   -2.306281   -4.108905
N       1.403865   -2.150021   -4.892840
H       1.589335    0.791298    1.003642
H       1.584054    0.851558   -0.778452
H       0.590970    1.980467    0.180142
H      -1.529044    0.625478    2.668110
H      -0.464951   -3.566571   -2.800003
H      -1.461953   -2.379137   -3.622556
