17

N      -0.070573    1.457642   -0.160717
C      -0.032455    0.014269   -0.007878
C       0.782725   -0.523902    1.203697
N       0.215839    0.034409    2.437631
C       0.820989   -2.075682    1.203491
O       1.495317   -2.586414    2.335517
C       2.179311   -0.055974    1.091391
N       3.288578    0.250347    0.980692
H      -0.287403    1.879920    0.738322
H       0.849140    1.802270   -0.421208
H      -1.058612   -0.357786    0.117263
H       0.357100   -0.433217   -0.927893
H      -0.758226   -0.255854    2.497008
H       0.685268   -0.395661    3.231196
H      -0.210150   -2.440200    1.267080
H       1.255830   -2.445887    0.263880
H       2.439188   -2.427827    2.217505
