14

O       0.005597    0.055656   -0.373688
C      -0.016307    1.209556   -0.099919
C      -1.124706    2.224488    0.342990
C       0.000975    3.131108    0.882997
N       0.727901    2.892701    2.174118
C       1.847182    3.108464    1.204259
C       1.040768    4.112434    0.259551
O       1.223236    3.333488   -0.952523
C       1.076353    2.325961    0.099724
H      -1.660299    2.641299   -0.513885
H      -1.841680    1.844745    1.072919
H       0.625851    3.689829    2.804955
H       2.903140    3.106522    1.485346
H       1.072227    5.203516    0.182355
