20

C      -0.139410    1.336301    0.030973
O      -0.069043   -0.083956    0.050649
C       0.538486   -0.650402   -1.010422
N       0.645901   -1.900516   -1.098322
C       1.315439   -2.432706   -2.270212
C       2.498143   -3.306651   -1.848060
C       3.178169   -4.008876   -3.013265
C       4.387247   -4.862394   -2.670323
O       2.778699   -3.895532   -4.150577
H       0.859612    1.789074    0.012887
H      -0.715422    1.698773   -0.829178
H      -0.647400    1.631463    0.949748
H       0.911806    0.066390   -1.759854
H       0.608249   -3.053874   -2.830816
H       1.662412   -1.649370   -2.963457
H       3.246721   -2.711373   -1.307692
H       2.162059   -4.062773   -1.126332
H       5.169416   -4.246466   -2.212220
H       4.118467   -5.629797   -1.935947
H       4.775389   -5.335383   -3.573127
