14

C      -0.041957    1.534001   -0.069616
C      -0.005882    0.022022    0.116279
N      -1.345527   -0.541406   -0.016272
C      -1.537679   -1.880927   -0.006976
N      -0.612767   -2.802054   -0.122045
O      -1.335627   -3.973676   -0.111043
N      -2.667014   -3.685376    0.026601
N      -2.808410   -2.435756    0.091652
H       0.965350    1.948260    0.020090
H      -0.439235    1.798950   -1.053585
H      -0.666114    2.012669    0.693564
H       0.626275   -0.444238   -0.646005
H       0.433158   -0.237145    1.090903
H      -2.115538   -0.004913    0.353607
