23

C       0.094005    1.473958    0.353712
C      -0.043292    0.029788   -0.147004
C      -1.451289   -0.531094   -0.093604
C      -1.942496   -1.141161    1.198861
C      -1.680607   -2.033324   -0.001873
C      -2.866739   -2.315424   -0.858135
C      -3.341887   -1.200408   -1.415723
C      -2.521957    0.026730   -1.057656
C      -3.380553    1.179927   -0.510451
H       1.142907    1.787396    0.354948
H      -0.455930    2.176168   -0.280505
H      -0.289780    1.575568    1.374267
H       0.328911   -0.032770   -1.178794
H       0.612645   -0.616846    0.449557
H      -1.229971   -1.183452    2.017678
H      -2.973671   -1.003481    1.506980
H      -0.852615   -2.733922    0.040420
H      -3.289520   -3.307538   -0.972780
H      -4.231359   -1.133948   -2.033785
H      -2.012979    0.399251   -1.961135
H      -3.908888    0.883064    0.400604
H      -2.771453    2.057336   -0.276422
H      -4.133046    1.483200   -1.246481
