19

C       0.000716    1.612024   -0.037679
C       0.091633    0.090624   -0.022725
C       0.841746   -0.691897   -1.112974
C       2.317845   -0.815102   -0.705454
C       1.271000   -1.771745   -0.160293
C       1.035126   -0.631821    0.962689
O       0.683297   -0.783586    2.280555
C       2.470082   -0.131450    0.643389
O       3.408231   -0.744602    1.519942
H       0.967086    2.083179   -0.239258
H      -0.695962    1.950294   -0.812090
H      -0.365701    1.985775    0.924382
H      -0.908997   -0.344749    0.083019
H       0.554226   -0.814731   -2.149300
H       3.092285   -1.011507   -1.436475
H       1.160405   -2.845493   -0.202280
H       1.514142   -0.913433    2.762547
H       2.672949    0.941761    0.701914
H       3.452196   -1.678863    1.279581
