21

C      -0.054013    1.494709   -0.092114
C      -0.011319   -0.001182    0.081203
O       1.292234   -0.620435    0.012684
C       0.590834   -0.654928    1.246448
C       1.227954   -0.096850    2.534367
C       0.878866   -1.427518    3.221243
C      -0.600636   -1.678375    3.125599
C       0.262184   -1.975897    1.923232
C       0.366010   -3.317538    1.259447
H       0.717579    1.980045    0.511043
H       0.108647    1.767693   -1.140207
H      -1.031683    1.887121    0.208788
H      -0.778904   -0.555004   -0.463686
H       2.301448    0.048934    2.391577
H       0.794531    0.809569    2.970970
H       1.504530   -1.942013    3.940279
H      -0.963553   -2.555739    3.652890
H      -1.300683   -0.845012    3.120285
H      -0.482679   -3.499469    0.589055
H       1.280099   -3.385392    0.661881
H       0.377081   -4.122136    2.001677
