20

C      -0.023345    1.532567   -0.004671
C      -0.004498    0.008711   -0.065143
N       0.810339   -0.459389   -1.175005
C       0.864182   -1.845873   -1.386092
C       0.435706   -2.878581   -0.577451
N       0.740687   -4.060394   -1.218521
C       1.364157   -3.797150   -2.416268
C       1.452440   -2.429974   -2.550305
N       1.938077   -1.651815   -3.629061
H       0.992012    1.929427    0.086637
H      -0.472567    1.957157   -0.910210
H      -0.611481    1.879591    0.849797
H       0.429446   -0.392606    0.860007
H      -1.038158   -0.379909   -0.116092
H       0.580885    0.019470   -2.040219
H      -0.054133   -2.871801    0.381139
H       0.562307   -4.975960   -0.851395
H       1.683667   -4.590991   -3.072139
H       2.345446   -2.228865   -4.355159
H       2.649986   -0.999517   -3.312631
