18

C      -0.093532    1.566927    0.024150
C       0.014196    0.034916    0.000237
C       0.662595   -0.475659   -1.296698
C       0.951840   -1.980018   -1.235289
C       1.801879   -2.353674   -0.026430
O       2.580024   -3.286485   -0.041334
C       1.584506   -1.536307    1.187480
C       0.758928   -0.481680    1.205586
H       0.899050    2.029118   -0.006857
H      -0.660621    1.928846   -0.839073
H      -0.599131    1.916754    0.930024
H      -1.010748   -0.369082    0.055241
H       0.020594   -0.243808   -2.153351
H       1.604014    0.067862   -1.452560
H       0.006948   -2.536416   -1.147555
H       1.452802   -2.345573   -2.135213
H       2.119293   -1.860465    2.075108
H       0.601548    0.057062    2.139180
