18

C      -0.014454    1.560108    0.067495
C       0.110287    0.050128    0.049962
C       1.357564   -0.734076   -0.251921
C       0.708830   -0.808746    1.133218
C       1.928082   -0.108741    1.771008
C       2.671442   -0.892406    2.738895
N       3.288371   -1.491197    3.512412
C       2.614300   -0.090678    0.333726
O       3.685106   -0.981152    0.188810
H       0.867268    2.058335    0.478945
H      -0.156723    1.942926   -0.948396
H      -0.878051    1.870765    0.664954
H      -0.764388   -0.435799   -0.379057
H       1.410494   -1.487897   -1.027211
H       0.171520   -1.623948    1.600515
H       1.721527    0.874188    2.207667
H       2.874354    0.916349   -0.022710
H       4.400345   -0.717717    0.779058
