19

C      -1.421045    0.257572    0.425037
C      -0.684702   -0.988224    0.270687
C      -0.078228   -2.020638    0.136215
C       0.637049   -3.282508   -0.057793
O      -0.167653   -4.448732    0.062735
C      -1.217504   -4.536142   -0.881134
C      -2.572090   -3.999716   -0.396299
C      -2.826403   -4.032512    1.095350
O      -3.397995   -3.640534   -1.202537
H      -1.008518    1.041503   -0.219136
H      -2.472764    0.122721    0.150452
H      -1.387010    0.619776    1.458060
H       1.131374   -3.271444   -1.042721
H       1.421444   -3.397009    0.697640
H      -0.970579   -4.048413   -1.832217
H      -1.362953   -5.606171   -1.085299
H      -3.866515   -3.770904    1.293809
H      -2.599182   -5.024561    1.500481
H      -2.157907   -3.329097    1.599398
