20

C      -0.223860    1.475791   -0.114853
N       0.069099    0.058554    0.047053
C       1.399665   -0.522176   -0.191033
C       2.577802    0.399538   -0.144760
C       2.702465    0.963454    1.057238
C       1.678785    0.419104    2.039090
O       0.882035    1.404095    2.693213
C       0.787532   -0.499249    1.183651
C       0.147211   -1.678914    1.873139
H       0.592399    2.156769    0.151955
H      -0.501816    1.648512   -1.160289
H      -1.082341    1.720758    0.515758
H       1.416442   -1.405171   -0.824653
H       3.198477    0.607261   -1.009393
H       3.423779    1.725374    1.335555
H       2.185094   -0.202067    2.797812
H       1.456676    1.922736    3.265081
H      -0.528295   -1.334593    2.664727
H      -0.435959   -2.266141    1.160343
H       0.901311   -2.327293    2.333470
