19

C      -0.052097    1.516916    0.062590
C       0.002801    0.030293   -0.041766
C       0.004185   -0.818578   -1.121184
N      -0.010121   -0.700501   -2.538328
C       0.326171   -2.071889   -3.015985
C       0.046443   -3.084481   -1.853027
C       0.081253   -2.160416   -0.669168
C       0.117276   -2.129927    0.700536
N       0.054933   -0.800403    1.070216
H       0.718214    1.910046    0.737982
H       0.121043    1.954976   -0.923829
H      -1.020851    1.887641    0.424288
H      -0.924615   -0.421147   -2.879352
H      -0.224066   -2.303193   -3.931734
H       1.395162   -2.094455   -3.257729
H      -0.934034   -3.567591   -1.965700
H       0.796321   -3.881098   -1.836765
H       0.180315   -2.906026    1.446458
H       0.117513   -0.469454    2.016980
