18

C      -0.065905    1.479464    0.049815
C      -0.033966   -0.014925   -0.040460
C       0.826022   -0.951399   -0.953310
C       1.954848   -0.887066    0.068294
N       0.744422   -0.890286    0.996836
C       0.033103   -1.862465    0.023804
C      -1.236455   -0.993926   -0.028171
C      -2.143291   -0.979697    1.100589
C      -2.918334   -0.955984    2.019715
H       0.944595    1.897476    0.098206
H      -0.570018    1.907304   -0.823231
H      -0.609927    1.788058    0.947621
H       0.844914   -0.990661   -2.048345
H       2.591283   -1.769941    0.186499
H       2.557030    0.024842    0.128866
H       0.120268   -2.941052    0.160463
H      -1.776034   -1.046294   -0.980284
H      -3.590096   -0.941167    2.841823
