18

O       0.200009    1.336032   -0.277593
C       0.144583   -0.043129   -0.057775
C       0.286160   -0.579941    1.421632
C      -1.120132   -1.157246    1.284429
O      -1.989308   -0.053777    0.951439
C      -1.258771   -0.695947   -0.112610
C      -2.024150   -1.194315   -1.279447
C      -3.457603   -1.550295   -1.137353
N      -3.068268   -0.348073   -1.892339
H      -0.511784    1.720100    0.250183
H       0.861451   -0.509572   -0.738047
H       1.066310   -1.337979    1.524249
H       0.408777    0.184258    2.192859
H      -1.580970   -2.002849    1.780984
H      -1.418099   -1.728347   -2.007908
H      -3.871320   -2.355595   -1.737148
H      -3.907012   -1.418310   -0.158054
H      -3.212892    0.468862   -1.302266
