16

C      -0.088194    1.327427    0.659471
N       0.081235   -0.091429    0.910295
C       1.186805   -0.766835    0.511961
O       2.103426   -0.285993   -0.126239
C       1.203478   -2.269601    0.865100
C       0.667364   -2.668270    2.215171
O      -0.333627   -2.222061    2.738361
C       1.442283   -3.743988    2.994273
O       2.454523   -4.255534    2.599270
H       0.689633    1.637555   -0.038735
H      -1.070531    1.526711    0.219736
H       0.007867    1.914825    1.580129
H      -0.564969   -0.573385    1.519381
H       0.584326   -2.783301    0.115736
H       2.222392   -2.635707    0.741201
H       0.958637   -3.995113    3.960941
