15

N       0.131173    1.433690    0.375334
C       0.040327    0.056115    0.131798
C      -1.098938   -0.691676   -0.059057
C      -2.542337   -0.305008   -0.049848
C      -3.203717   -0.436814   -1.356446
N      -3.709375   -0.568984   -2.387110
N      -0.643173   -1.994575   -0.208661
C       0.706913   -1.966275   -0.085009
N       1.154524   -0.746111    0.122399
H       1.102875    1.689928    0.503925
H      -0.257233    1.995376   -0.372986
H      -3.116212   -0.895655    0.677511
H      -2.614714    0.737049    0.279489
H      -1.208108   -2.800357   -0.420222
H       1.313308   -2.856456   -0.156751
