13

N      -0.040637    1.431731   -0.144368
C       0.017971    0.061464   -0.066375
C      -1.125849   -0.747136    0.008630
F      -2.299175   -0.108579    0.065803
N      -1.164824   -2.053373    0.035939
N      -0.017764   -2.735871   -0.008982
C       1.122510   -2.055548   -0.073999
C       1.206595   -0.662487   -0.102655
O       2.367590    0.043486   -0.157869
H       0.800706    1.923927    0.112690
H      -0.897565    1.852314    0.178335
H       2.028278   -2.658581   -0.102892
H       3.116175   -0.562947   -0.160680
