15

C      -0.037949    1.508078    0.064634
C       0.014157    0.019697   -0.004633
C       0.009807   -0.828100   -1.110535
C      -0.046736   -0.467128   -2.472191
N      -0.091531   -0.229792   -3.607590
C       0.074428   -2.178062   -0.624368
O       0.091457   -3.310040   -1.366677
C       0.116165   -2.120658    0.742873
N       0.077952   -0.777429    1.091039
H       0.848336    1.924103    0.558015
H      -0.084862    1.923784   -0.943838
H      -0.919463    1.859667    0.613578
H       0.055462   -3.070252   -2.299966
H       0.168079   -2.901569    1.480863
H       0.096704   -0.437651    2.037137
