15

C       0.032882    1.518326   -0.282738
C      -0.041163    0.053024    0.046492
O       1.160321   -0.710943   -0.054037
C       0.585046   -0.569424    1.239210
C       1.339694    0.189292    2.259370
N       2.336725    0.998250    2.002010
O       2.706920    1.467197    3.269328
C       1.888575    0.876366    4.138386
N       1.024427    0.077493    3.601367
H       0.903993    1.985054    0.180538
H       0.103866    1.650788   -1.367182
H      -0.874233    2.027984    0.059074
H      -0.919579   -0.469090   -0.338818
H       0.123218   -1.466072    1.650938
H       2.024595    1.112748    5.183601
