20

C       0.437386    1.230918    0.272840
C      -0.371901    0.107877   -0.380412
N       0.339492   -0.536305   -1.467413
C       0.775565   -1.808457   -1.424380
O       0.609448   -2.596678   -0.501068
C       1.539107   -2.229180   -2.675832
N       1.875409   -3.547279   -2.640708
N       1.759575   -1.364434   -3.593569
C       2.485157   -1.805336   -4.769828
H       1.368391    0.842649    0.695668
H       0.692408    2.010512   -0.452984
H      -0.139861    1.697336    1.077415
H      -0.599968   -0.676363    0.345288
H      -1.325186    0.501185   -0.755402
H       0.597393   -0.032064   -2.307055
H       1.715404   -4.003224   -1.753729
H       2.575606   -3.915258   -3.259554
H       3.508259   -2.137491   -4.527738
H       1.981621   -2.642435   -5.278648
H       2.569426   -0.980894   -5.481827
