17

C      -0.232094   -1.229490   -0.149407
C      -0.103578   -0.036399   -0.073731
C      -0.001129    1.388665    0.001006
C       0.512748    2.094038    1.257653
C       1.035551    1.315450    2.450217
O       2.103927    0.441350    2.107010
C       3.031950    1.065559    1.272790
O       2.510750    1.318668   -0.014732
C       1.353922    2.093854    0.010644
H      -0.324112   -2.284940   -0.215516
H      -0.783141    1.927337   -0.527973
H       0.004842    3.017982    1.515404
H       1.376103    2.033052    3.214358
H       0.258430    0.685435    2.891684
H       3.382362    2.010305    1.727614
H       3.865555    0.375598    1.134547
H       1.438626    3.000863   -0.582839
