18

C      -0.137386    1.512017   -0.060247
C       0.010809    0.023743   -0.059450
C       0.779301   -0.896750   -1.007073
O       2.166816   -0.861876   -0.575750
C       2.129572   -0.876659    0.882577
C       0.623981   -0.912072    1.036843
C      -0.741420   -0.948805    1.734659
N      -1.168208   -0.944695    0.254989
C       0.049147   -1.842361   -0.067151
H       0.837589    1.987447   -0.210899
H      -0.801821    1.832145   -0.869407
H      -0.555555    1.878043    0.883547
H       0.754085   -0.894163   -2.096053
H       2.655335   -1.762312    1.254653
H       2.611970    0.026700    1.271575
H      -1.020975   -1.864057    2.264504
H      -1.065834   -0.064949    2.291395
H      -0.021718   -2.929481   -0.043060
