23

C      -0.098500    1.579349    0.315579
C      -0.028919    0.069612    0.024664
C       0.918104   -0.639138    1.001384
C      -1.421785   -0.521305   -0.006212
C      -2.207767   -0.947884    1.206467
C      -1.952290   -1.959525    0.123381
C      -2.952532   -1.737453   -1.013050
C      -2.391595   -0.280743   -1.163510
O      -3.262539    0.814833   -0.961109
H       0.889555    2.043625    0.225787
H      -0.782431    2.084387   -0.372517
H      -0.465289    1.757859    1.332553
H       0.390659   -0.055736   -0.985161
H       0.605058   -0.494223    2.041042
H       0.967106   -1.715691    0.808170
H       1.931725   -0.236052    0.908738
H      -1.625274   -1.078553    2.112148
H      -3.210769   -0.563937    1.371478
H      -1.395220   -2.870504    0.306236
H      -2.776284   -2.350526   -1.900318
H      -4.009056   -1.806108   -0.732374
H      -1.843680   -0.171791   -2.110613
H      -3.847447    0.880438   -1.722892
