20

C      -0.016267    1.487670    0.120439
N       0.090941    0.053354    0.011625
C       1.116962   -0.517290   -0.877713
C       1.388924   -1.623391    0.168892
O       0.704441   -2.799946   -0.194594
C       2.848907   -1.925293    0.505550
C       3.019613   -2.903607    1.642787
O       2.118448   -3.529597    2.151552
C       0.603234   -0.710744    1.161928
H       0.936217    1.979332    0.404357
H      -0.341305    1.910972   -0.836105
H      -0.767507    1.748879    0.873432
H       0.749835   -0.866730   -1.847992
H       1.988952    0.141351   -1.030285
H       0.727182   -3.371756    0.585224
H       3.354526   -2.363054   -0.369090
H       3.413766   -1.016390    0.750902
H       4.063921   -3.034312    2.002222
H       1.269408   -0.125799    1.819431
H      -0.162549   -1.201123    1.771545
