21

C      -0.015415    1.764001   -0.238492
C      -0.010295    0.245111   -0.128519
C      -1.399199   -0.360624    0.092830
C      -2.023401    0.027400    1.449670
C      -3.279293   -0.666490    1.704188
C      -4.313746   -1.251014    1.887452
C       0.838841   -0.497119   -1.195904
C       1.701508   -0.948063   -0.002862
O       0.902986   -0.189029    0.926967
H       0.998846    2.135249   -0.409457
H      -0.649320    2.090633   -1.070231
H      -0.387913    2.226803    0.680009
H      -2.064473   -0.062146   -0.726230
H      -1.316048   -1.451790    0.052876
H      -1.299021   -0.205820    2.238908
H      -2.195777    1.109381    1.494906
H      -5.227649   -1.761285    2.064168
H       0.319600   -1.289593   -1.737625
H       1.342206    0.156042   -1.910940
H       1.678706   -2.022399    0.218056
H       2.746015   -0.614718   -0.010451
