16

O       0.012300    0.050618   -0.654593
C       0.002328    1.150266   -0.135782
C      -1.320414    1.833738    0.224133
C      -1.244266    2.900559    1.298138
C      -0.565217    2.652379    2.609784
C       0.097953    3.556455    1.569825
C       1.268648    3.031527    0.845777
C       1.240341    1.913773    0.101854
H      -1.679810    2.286210   -0.710597
H      -2.042217    1.051746    0.479733
H      -2.103763    3.563074    1.334700
H      -0.972491    3.124739    3.496815
H      -0.094964    1.689516    2.779773
H       0.115722    4.616632    1.797841
H       2.204641    3.573400    0.964149
H       2.135798    1.513199   -0.361774
