17

O      -0.291731    1.396412    0.012460
C       0.132019    0.043608   -0.064405
C       1.058211   -0.170800   -1.266104
N       0.417172    0.286859   -2.479718
C       0.375774   -0.458473   -3.617135
O       0.912424   -1.536118   -3.762525
C       0.805544   -0.430528    1.239392
C      -0.041132   -0.240342    2.414082
N      -0.708587   -0.094614    3.345299
H       0.463246    1.943723    0.260422
H      -0.789085   -0.527409   -0.218578
H       2.004154    0.367522   -1.094688
H       1.301699   -1.227253   -1.405615
H      -0.105617    1.147676   -2.425270
H      -0.210029    0.040289   -4.413278
H       1.066504   -1.491579    1.155658
H       1.747570    0.112959    1.391242
