18

C      -0.207179    1.625354   -0.122113
C       0.016061    0.123227   -0.084693
C       0.859246   -0.489608   -1.233854
C       1.857852   -0.852545   -0.117015
O       1.011349   -0.253555    0.894822
C      -1.309883   -0.608922    0.239739
O      -2.335753   -0.334977   -0.695144
C      -1.093595   -2.063243    0.380088
N      -0.937359   -3.207586    0.420288
H       0.725451    2.139031   -0.368755
H      -0.967387    1.884441   -0.863631
H      -0.543727    1.981233    0.857242
H       0.414429   -1.342822   -1.750113
H       1.213767    0.232757   -1.969938
H       1.999648   -1.922937    0.059856
H       2.833428   -0.357364   -0.168737
H      -1.668190   -0.227673    1.202494
H      -2.106707   -0.759398   -1.530340
