15

C      -0.095053    1.537493    0.060762
C       0.142315    0.064292   -0.028995
N      -0.754402   -0.946358    0.646274
C       0.685834   -0.947593    0.948440
C       1.283375   -1.828553   -0.163414
O       0.840951   -3.146653   -0.259380
C       0.750194   -0.730858   -1.168172
O       0.920744   -0.512680   -2.331064
H       0.785274    2.090082   -0.281279
H      -0.939455    1.834786   -0.569609
H      -0.312936    1.844485    1.089295
H      -1.239596   -0.443589    1.389358
H       1.064015   -0.771169    1.947298
H       2.378005   -1.836064   -0.176488
H      -0.120541   -3.109941   -0.164336
