20

C      -0.117723    1.697795    0.027741
C       0.097001    0.175363    0.056377
C       0.888979   -0.240444    1.304766
C      -1.275740   -0.566417    0.036364
C      -2.132115   -0.243997    1.174472
N      -2.798170    0.025318    2.080122
C       0.796407   -0.239929   -1.235329
C       2.228097   -0.536946   -1.362274
O       1.257315   -1.588474   -1.333206
H       0.843291    2.220895    0.010237
H      -0.685556    2.006511   -0.857129
H      -0.669022    2.029727    0.912102
H       0.289490   -0.086419    2.206161
H       1.169599   -1.296249    1.252156
H       1.799086    0.356892    1.409308
H      -1.820537   -0.318461   -0.882368
H      -1.099803   -1.647428    0.020765
H       0.285233    0.108126   -2.136983
H       2.720611   -0.386040   -2.321659
H       2.879824   -0.483242   -0.493982
