20

C      -0.044059    1.519135    0.101849
C       0.031684    0.011082    0.059908
C       0.867214   -0.816121   -0.975047
N       0.801909   -1.956298    0.035569
C       0.835338   -0.841450    1.069766
C      -0.659179   -2.227825   -0.081842
C      -1.476158   -2.483016    1.193258
O      -1.929136   -1.106662    1.235895
C      -1.273799   -0.804918   -0.021830
H       0.953052    1.969659    0.148841
H      -0.550591    1.917402   -0.784602
H      -0.604910    1.852725    0.981619
H       0.436356   -1.043280   -1.955981
H       1.894731   -0.462683   -1.086675
H       1.866346   -0.502502    1.192652
H       0.396550   -1.062468    2.042855
H      -0.849412   -2.878893   -0.934722
H      -2.316836   -3.172457    1.050493
H      -0.919312   -2.776581    2.090423
H      -1.981151   -0.448123   -0.777007
