18

N      -0.073177    1.140199   -0.986680
C      -0.020653    0.137752   -0.216381
C      -1.296030   -0.641477    0.073431
O      -1.734726   -0.527238    1.412504
C      -1.219286   -1.433495    2.371079
C       0.131672   -1.021493    2.965805
O       1.299716   -1.538197    2.331667
C       1.343088   -1.511195    0.947086
O       1.151716   -0.210830    0.402163
H       0.855502    1.559232   -1.079723
H      -2.062804   -0.178700   -0.548658
H      -1.211190   -1.697345   -0.223405
H      -1.952892   -1.426871    3.184191
H      -1.178714   -2.460124    1.974520
H       0.166382    0.075419    2.990802
H       0.200612   -1.389093    3.993796
H       2.358358   -1.811482    0.677606
H       0.628525   -2.209808    0.494964
