17

C      -0.040878    1.521350    0.084938
C      -0.027957    0.023490    0.002146
C       1.172176   -0.797108   -0.365627
C       0.594775   -0.985752    1.028575
C       1.331313   -0.677895    2.210202
N       1.933980   -0.432194    3.167813
C      -0.672406   -1.807036    0.954991
N      -1.801535   -0.928807    1.342987
C      -1.259118   -0.860570   -0.034977
H       0.924764    1.908149    0.423585
H      -0.253215    1.963345   -0.895347
H      -0.808693    1.855141    0.788378
H       1.096236   -1.617920   -1.073200
H       2.114673   -0.259893   -0.401250
H      -0.751394   -2.885900    1.004623
H      -2.650133   -1.496352    1.311743
H      -1.878951   -1.080927   -0.895709
