16

C       0.078424   -1.176548    0.030618
C       0.032806    0.026567    0.016080
C      -0.021144    1.436756   -0.001418
C      -0.043687    2.497234    1.077156
C       1.029827    2.524724   -0.016457
C       0.260974    3.292684   -1.099264
C      -0.531724    4.427861   -0.427570
C      -1.159679    3.256421    0.348063
N      -0.924283    2.328521   -0.865476
H       0.114932   -2.237525    0.039883
H       0.180115    2.396306    2.130478
H       2.089385    2.445209    0.185472
H       0.675848    3.365177   -2.103914
H       0.009332    5.201073    0.122883
H      -1.248910    4.875771   -1.120339
H      -2.157805    3.292859    0.782933
