25

C      -0.167415    1.559104    0.061268
C      -0.051005    0.047290    0.165364
O      -1.340868   -0.510753    0.003886
C      -1.412443   -1.936971   -0.009102
C      -1.328300   -2.521815    1.401120
C      -2.756330   -2.258721   -0.690631
O      -3.809602   -1.590265   -0.006149
C      -2.744478   -1.920373   -2.187545
C      -4.076572   -2.225333   -2.875582
H       0.815886    2.025081    0.174986
H      -0.578791    1.847368   -0.910339
H      -0.826927    1.948432    0.842271
H       0.625016   -0.343070   -0.613034
H       0.379333   -0.233394    1.138647
H      -0.592518   -2.334570   -0.628813
H      -0.414914   -2.209620    1.914850
H      -2.193487   -2.200133    1.986104
H      -1.326785   -3.615819    1.357295
H      -2.958258   -3.330746   -0.567864
H      -3.510785   -0.677200    0.094520
H      -2.492337   -0.858960   -2.297400
H      -1.934029   -2.485262   -2.667285
H      -4.056210   -1.930078   -3.929071
H      -4.308314   -3.295898   -2.833534
H      -4.892110   -1.691267   -2.381552
