20

C      -0.118466    1.543550    0.092840
C       0.096529    0.063622    0.043652
N      -0.782286   -0.886528    0.766512
C       0.684587   -0.899988    1.010920
C       1.282520   -1.760659   -0.099136
C       0.672718   -0.750360   -1.164819
C      -0.355539   -1.323406   -2.145772
C       1.718836   -0.014298   -1.858783
C       2.578736    0.595812   -2.438835
H       0.747271    2.073889   -0.313866
H      -0.998093    1.835806   -0.493039
H      -0.275080    1.880663    1.123464
H      -1.212235   -0.362452    1.528789
H       1.079643   -0.731378    2.005670
H       2.372581   -1.765316   -0.119495
H       0.898544   -2.782343   -0.155205
H      -1.150825   -1.822993   -1.589304
H      -0.794002   -0.529045   -2.757891
H       0.117694   -2.043441   -2.820243
H       3.338900    1.128502   -2.954486
