18

C       0.069625    1.412448   -0.353728
C       0.067626   -0.027062    0.093103
O       1.329330   -0.706595    0.165488
C       0.587669   -0.530121    1.379435
C       1.212282    0.370645    2.420596
C      -0.028138   -1.823148    1.924673
C       0.916270   -2.653617    2.664739
C       1.700517   -3.327796    3.276922
H       0.853001    1.994433    0.134261
H       0.233369    1.466693   -1.435175
H      -0.898569    1.878256   -0.139603
H      -0.716502   -0.628616   -0.374981
H       1.691036    1.237370    1.964223
H       0.456054    0.720405    3.132211
H       1.970207   -0.182768    2.982451
H      -0.875130   -1.565319    2.575069
H      -0.437037   -2.394298    1.083948
H       2.391609   -3.931996    3.810407
