17

O      -0.063838   -0.073494    0.266128
C       0.006543    1.113544    0.056154
C      -1.275898    1.967697   -0.004372
O      -1.472674    2.738082   -1.174555
C      -0.548256    3.794390   -1.379293
C       0.682089    3.307358   -2.127672
O       1.966817    3.716370   -1.645463
C       1.590584    2.344620   -1.493097
C       1.347588    1.833319   -0.079328
H      -2.121780    1.280980    0.062104
H      -1.279574    2.619378    0.888450
H      -1.076531    4.550225   -1.968125
H      -0.243335    4.255166   -0.429308
H       0.596467    3.288987   -3.213811
H       2.132518    1.659397   -2.143387
H       1.361208    2.692711    0.599561
H       2.134817    1.139813    0.223624
