14

C       0.997581    1.170851    0.074248
N       0.443351    0.129958   -0.801246
C      -0.335764    0.566417    0.367565
C      -0.522525   -0.440390    1.428842
C      -0.074573   -1.718826    1.489026
O      -0.488265   -2.257037    2.677862
C      -1.177125   -1.259465    3.272824
N      -1.237418   -0.162040    2.593626
H       1.858341    0.862175    0.659873
H       1.023901    2.198706   -0.278207
H       0.064932    0.543007   -1.648662
H      -1.197306    1.210884    0.209072
H       0.494481   -2.351210    0.832336
H      -1.604794   -1.473576    4.239755
