19

C      -0.065806    1.475336   -0.055444
C       1.278665    0.747828    0.032692
C       2.058155    0.614514    1.329982
O       2.011269   -0.721480    1.827279
C       0.712654   -1.072401    2.264103
C      -0.340640   -0.978421    1.154468
C      -0.365347   -1.996300   -0.010958
O      -0.372049   -0.924197   -0.991386
C      -0.018927   -0.002027    0.032145
H      -0.422306    2.040788    0.801903
H      -0.314244    1.910623   -1.017559
H       1.852959    0.709908   -0.887008
H       3.117050    0.838547    1.181300
H       1.671858    1.305707    2.097781
H       0.780516   -2.093794    2.652617
H       0.413965   -0.417109    3.100861
H      -1.336727   -0.835433    1.583540
H       0.546614   -2.602037   -0.087124
H      -1.248675   -2.634381   -0.102397
