23

C       0.824841   -0.463795    1.288221
C       0.040335   -0.045686    0.039063
C      -1.386803   -0.602411   -0.001330
O      -2.109267   -0.125159    1.123749
C      -2.109279   -0.542471   -1.396142
C      -1.353888   -1.860760   -1.733337
C      -1.559219   -2.137533   -0.215750
C      -3.093586   -2.296781   -0.149447
C      -3.510972   -1.077818   -1.043231
H       1.798522    0.034165    1.324245
H       0.273097   -0.209163    2.196783
H       1.002657   -1.543899    1.300540
H      -0.033617    1.052333    0.004699
H       0.596551   -0.326272   -0.859080
H      -1.991337    0.829495    1.172232
H      -2.046353    0.340724   -2.035331
H      -1.849613   -2.546409   -2.425640
H      -0.315593   -1.726847   -2.034427
H      -0.955514   -2.862676    0.331191
H      -3.413633   -3.256158   -0.565932
H      -3.476620   -2.213786    0.868196
H      -4.105215   -0.349374   -0.488910
H      -4.068602   -1.374699   -1.936008
