23

C      -0.318936    1.605929    0.044919
C       0.035627    0.112349    0.025950
C      -1.263929   -0.712744    0.010417
C       0.926357   -0.256284   -1.217469
C       2.216031   -0.902016   -0.686651
O       3.317301    0.012999   -0.587924
C       1.843469   -1.400099    0.727035
O       2.970024   -1.661863    1.528021
C       0.913501   -0.285527    1.242462
H       0.580356    2.232941    0.035984
H      -0.922232    1.880683   -0.827850
H      -0.892692    1.865578    0.941534
H      -1.853486   -0.499147   -0.888254
H      -1.060354   -1.788816    0.023916
H      -1.885946   -0.480854    0.881823
H       0.397703   -0.954323   -1.873910
H       1.169601    0.618436   -1.829841
H       2.588716   -1.707886   -1.323601
H       2.980745    0.860253   -0.277492
H       1.282364   -2.339195    0.640432
H       3.647037   -1.044887    1.214853
H       1.533750    0.560661    1.567852
H       0.324485   -0.594040    2.110236
