17

O       0.166967    1.374587    0.099423
C       0.055132   -0.015061    0.007722
C      -0.505083   -0.664121   -1.210202
C      -1.306988   -0.689272    0.106780
C      -1.432481   -1.967449    0.856705
O      -2.498487   -2.466683    1.138967
C      -0.102951   -2.583251    1.301090
O       0.774101   -1.579260    1.776006
C       1.202740   -0.696620    0.758937
H      -0.372053    1.783002   -0.585379
H      -0.919684   -0.037903   -1.994439
H      -0.063476   -1.587802   -1.570303
H      -2.191771   -0.061552    0.129141
H      -0.299942   -3.270961    2.125222
H       0.353503   -3.154949    0.472440
H       1.856651   -1.228585    0.049051
H       1.785601    0.083148    1.252244
