19

O      -0.200313    0.020670   -0.587603
C      -0.080283    1.052942    0.022280
C       1.212695    1.859162    0.099655
C       1.454723    2.663518   -1.180656
C       1.237701    2.087250   -2.527333
N       0.357230    3.161923   -2.030041
C       1.192382    2.758459    1.322830
C       1.550452    2.218249    2.658988
N       2.443315    3.168817    1.972524
H      -0.941321    1.487451    0.579523
H       2.030318    1.131125    0.199916
H       2.253462    3.393486   -1.061749
H       1.890035    2.375103   -3.346743
H       0.841053    1.077751   -2.583178
H      -0.535229    2.764673   -1.744621
H       0.455733    3.559504    1.275351
H       1.070347    2.604165    3.553231
H       1.849740    1.174444    2.720692
H       3.230166    2.669227    1.563197
