17

O      -0.011571    0.177322   -0.693234
C       0.123298    1.059201    0.116549
C       1.288644    1.967477    0.193304
C       1.655679    2.991427    1.287999
C       2.177321    3.920148    0.163858
C       1.942588    5.396476    0.041600
C       3.349547    4.852544    0.153481
C       1.814499    2.877956   -0.872910
O       2.473416    1.665805   -0.543291
H      -0.655565    1.278775    0.881841
H       0.779186    3.396905    1.801389
H       2.385243    2.634176    2.018440
H       1.619305    5.784026   -0.919458
H       1.521616    5.917465    0.895307
H       3.879676    5.001367    1.088332
H       3.982927    4.873119   -0.726883
H       1.473451    3.001500   -1.895492
