15

N      -0.156961    1.070192   -0.881542
C      -0.030288    0.092673   -0.093789
C      -1.236675   -0.593409    0.506115
C      -0.989324   -2.040331    0.825090
C       0.229305   -2.459041    1.140267
C       1.372976   -1.473871    1.148616
O       1.214441   -0.393592    0.226348
C       1.592923   -0.940737    2.511766
N       1.758399   -0.538204    3.582075
H       0.757720    1.416880   -1.176589
H      -1.514588   -0.060088    1.427521
H      -2.069183   -0.454205   -0.185364
H      -1.831645   -2.724231    0.809986
H       0.458930   -3.482304    1.412575
H       2.300798   -1.967668    0.840391
