16

O       0.283092    1.358955    0.033656
C       0.118190    0.012270    0.048725
C      -0.108137   -0.810617   -1.036641
N      -0.205941   -2.078542   -0.521596
N      -0.056549   -2.110688    0.815315
C       0.141241   -0.840939    1.170011
N      -0.209133   -0.389960   -2.370660
C       0.316601   -1.234554   -3.451193
C      -1.150189   -1.052964   -3.282877
H       0.211363    1.635211   -0.889711
H      -0.368603   -2.942571   -1.008085
H       0.292355   -0.580338    2.206268
H       0.847463   -0.703544   -4.235733
H       0.748196   -2.194584   -3.179352
H      -1.728326   -1.887985   -2.895159
H      -1.698863   -0.388304   -3.943538
