11

N      -0.058233    1.362416    0.155185
C       0.006765   -0.002267    0.046545
N      -1.070783   -0.786830    0.030920
N      -0.544341   -2.017948   -0.015390
N       0.759998   -2.116056   -0.037803
C       1.159957   -0.833234    0.000703
C       2.514290   -0.427867   -0.015007
N       3.597792   -0.018515   -0.032150
H       0.741431    1.867266   -0.195797
H      -0.943177    1.768224   -0.109550
H      -1.133127   -2.835335   -0.033589
