14

O       0.123206    1.405449   -0.339463
C       0.032805    0.041500    0.030883
C      -1.340023   -0.472127    0.019666
C      -2.488151   -0.833977    0.026107
C      -3.851052   -1.357288    0.022978
C      -3.780170   -2.912750    0.128593
O      -4.168390   -3.635019   -0.739526
C      -4.648727   -0.838786    1.142011
N      -5.284168   -0.470071    2.033342
H      -0.425042    1.913820    0.267823
H       0.638105   -0.509513   -0.696916
H       0.476569   -0.145421    1.021189
H      -4.363656   -1.132463   -0.919316
H      -3.317781   -3.272958    1.068161
