21

C       0.264257    1.408590   -0.121958
C       0.104347   -0.098834   -0.026119
C      -1.228729   -0.653991   -0.505987
C      -1.538816   -0.369382   -2.001466
N      -0.606053   -0.925193   -2.986725
C      -2.896432   -0.845617   -2.311326
N      -3.963237   -1.238676   -2.516832
C       1.346084   -0.952085   -0.197165
C       0.728485   -0.780746    1.168782
H       1.218148    1.727179    0.308770
H       0.244186    1.765591   -1.158326
H      -0.535208    1.925528    0.421823
H      -1.258255   -1.738929   -0.349749
H      -2.039725   -0.228412    0.099421
H      -1.550487    0.717383   -2.152174
H       0.329900   -0.595759   -2.771842
H      -0.583323   -1.938233   -2.905683
H       1.250010   -1.920645   -0.675951
H       2.287809   -0.451887   -0.398629
H       1.248722   -0.161406    1.891449
H       0.211399   -1.629380    1.603903
