13

C      -0.061019    1.381157   -0.090566
O       0.497550    0.079719    0.148395
C       0.822617   -0.615607   -0.937871
C       0.594041   -1.891065   -1.272282
N       1.284777   -2.092509   -2.481305
C       1.899240   -0.938138   -2.887191
O       2.554642   -0.700902   -3.863670
O       1.608732   -0.002982   -1.893127
H       0.646979    2.015821   -0.629509
H      -0.992725    1.299124   -0.661765
H      -0.265057    1.802878    0.893657
H       0.036938   -2.660566   -0.770754
H       1.325212   -2.938027   -3.021206
