18

C       0.107831    1.538095   -0.001229
C       0.123461    0.028234    0.005891
N      -0.810743   -0.710561    0.893719
C       0.630918   -0.750738    1.172031
C       1.299679   -2.091414    0.909793
C       1.835668   -2.127563   -0.515711
O       0.840921   -1.775895   -1.494554
C       0.173502   -0.604533   -1.368823
O      -0.385522   -0.127456   -2.318619
H       1.029165    1.942233   -0.433275
H      -0.727481    1.902926   -0.604289
H       0.012384    1.926220    1.017889
H      -1.278581   -0.043497    1.504189
H       0.997209   -0.170995    2.015966
H       2.130611   -2.257902    1.603267
H       0.570907   -2.893356    1.059032
H       2.688047   -1.444005   -0.623380
H       2.167947   -3.127881   -0.801045
