23

C      -0.111024    1.604926    0.029981
C      -0.277405    0.099906   -0.212049
C       0.689601   -0.497492   -1.240509
C       0.490966    0.079846   -2.645756
C       2.201233   -0.543536   -0.818859
C       2.271752   -2.049507   -1.210187
C       0.746301   -2.042260   -1.289729
C      -0.206314   -3.021483   -0.762810
O      -0.016039   -2.844678   -2.174733
H       0.914172    1.848357    0.329849
H      -0.344040    2.191269   -0.863725
H      -0.778285    1.944401    0.828208
H      -0.141651   -0.430126    0.739411
H      -1.308395   -0.104645   -0.531533
H       0.675607    1.158239   -2.662118
H       1.173497   -0.384581   -3.364415
H      -0.528623   -0.103208   -2.999405
H       2.870831    0.128719   -1.359471
H       2.337419   -0.384397    0.254067
H       2.727769   -2.215816   -2.190031
H       2.730556   -2.732966   -0.491974
H       0.158417   -3.965525   -0.358080
H      -1.173373   -2.698037   -0.380025
