16

C      -0.028342    1.412067    0.006557
N      -0.015203   -0.039555   -0.005120
C       0.481321   -0.628112   -1.003426
N       0.576081   -2.004101   -1.185029
C       1.351080   -2.250738   -2.334710
N       1.734979   -3.554809   -2.661819
C       1.579246   -1.065198   -2.906619
O       2.113305   -0.736020   -4.096679
O       1.042514   -0.039410   -2.124069
H       0.857582    1.861802   -0.462664
H      -0.910745    1.806797   -0.516556
H      -0.083346    1.759799    1.042353
H       0.624075   -2.599331   -0.373267
H       0.933121   -4.146350   -2.865480
H       2.341353   -3.550430   -3.473608
H       2.865908   -0.144888   -3.960865
