19

C      -0.044603    1.439395   -0.276311
C       1.308948    0.890320    0.103487
C       0.118573   -0.032550    0.007514
C      -0.468707   -0.642077    1.232533
C      -0.428007   -2.134973    1.528763
C      -1.748755   -1.407344    1.341270
O      -2.420987   -0.940173    2.485085
C      -1.465612   -0.217734    3.238399
O      -0.447864    0.217214    2.355778
H      -0.565403    2.029911    0.467728
H      -0.212662    1.745365   -1.302874
H       2.074568    0.817279   -0.660927
H       1.677514    1.121775    1.095850
H       0.093908   -0.701245   -0.847606
H      -0.114003   -2.781656    0.715603
H      -0.141320   -2.482837    2.515152
H      -2.423270   -1.626346    0.523204
H      -1.946249    0.652391    3.697601
H      -1.034470   -0.860768    4.023020
