17

C      -0.123702    1.498601   -0.045604
C      -0.048207    0.046458   -0.029634
C       0.021145   -1.159680   -0.016474
C       0.104756   -2.563754   -0.001239
C       1.182119   -3.435605    0.005702
C       2.634015   -3.092210   -0.001554
N       0.738999   -4.735711    0.021026
C      -0.574253   -4.669318    0.023440
N      -1.015240   -3.386441    0.010456
H       0.878034    1.940448   -0.006028
H      -0.611064    1.867635   -0.955466
H      -0.686919    1.882013    0.813017
H       3.137036   -3.497393    0.883113
H       3.133180   -3.518661   -0.878366
H       2.775396   -2.008835   -0.014924
H      -1.250262   -5.511519    0.034277
H      -1.969531   -3.067609    0.009153
