19

O      -0.062278    1.529739    0.115549
C       0.018999    0.090497    0.008527
C       0.886187   -0.530982    1.081125
C       0.588162   -0.703555    2.375693
C      -0.638167   -0.346818    3.109450
C      -1.392920    0.943718    2.905865
C      -2.033345   -0.334250    2.427471
C      -2.214864   -0.657124    1.000532
C      -1.380667   -0.473322   -0.029310
H       0.838360    1.850260    0.245281
H       0.485330   -0.147728   -0.958121
H       1.858232   -0.883336    0.743589
H       1.340702   -1.197877    2.987752
H      -0.659270   -0.732167    4.123679
H      -1.815784    1.412015    3.787995
H      -1.023874    1.613410    2.139113
H      -2.825530   -0.718961    3.061499
H      -3.175026   -1.116434    0.772543
H      -1.729353   -0.773223   -1.013375
