18

O       0.015994    1.293010   -0.815422
C       0.045323    0.250484    0.142480
C      -1.311224   -0.399191    0.282340
N      -1.714487   -1.199152   -0.901796
C      -1.502574   -1.861836    0.383275
C      -0.462635   -2.979141    0.596689
C      -1.504313   -3.685274    1.485375
O      -1.491064   -4.676694    2.151932
C      -2.571445   -2.603413    1.209555
H      -0.308230    0.892159   -1.630906
H       0.791694   -0.514558   -0.120431
H       0.352131    0.706793    1.089670
H      -2.076858    0.229633    0.734741
H      -2.709799   -1.089602   -1.081445
H      -0.209472   -3.537275   -0.310290
H       0.463703   -2.709222    1.112132
H      -2.954624   -2.096003    2.100055
H      -3.420876   -2.984079    0.630633
