16

N      -0.130574    1.374223    0.295905
C      -0.074445   -0.001884   -0.038219
C      -1.216816   -0.749196   -0.246175
O      -2.518007   -0.407455   -0.173956
N      -0.765641   -1.972116   -0.661331
C      -0.812061   -3.452759   -0.641369
C       0.765467   -3.426565   -0.701252
C       0.601422   -1.920497   -0.591203
N       1.083258   -0.766658   -0.223454
H       0.318974    1.944362   -0.415852
H       0.367329    1.557558    1.163036
H      -2.515466    0.530184    0.070006
H      -1.215473   -3.858159    0.289496
H      -1.334340   -3.886504   -1.496792
H       1.254068   -3.912706    0.146343
H       1.197929   -3.805163   -1.630796
