21

C       0.044341    1.576424   -0.036211
C      -0.023775    0.043670    0.013211
C       0.687598   -0.526727   -1.229814
O       0.569177   -1.921083   -1.445704
C       1.309679   -2.733735   -0.551789
C       0.533577   -3.024470    0.722449
O       1.213771   -2.855421    1.972608
C       0.178936   -1.925961    1.628625
C       0.572980   -0.490328    1.332724
H       1.081547    1.927389    0.022820
H      -0.387114    1.966906   -0.963634
H      -0.502339    2.020581    0.801059
H      -1.077616   -0.261365   -0.042799
H       0.261429   -0.063946   -2.126460
H       1.754909   -0.245149   -1.188053
H       1.521447   -3.664431   -1.087984
H       2.270360   -2.267663   -0.289885
H      -0.124095   -3.893306    0.688401
H      -0.729376   -2.048169    2.220310
H       1.666615   -0.424321    1.299569
H       0.250713    0.146135    2.164844
