20

C      -0.637705    1.348419   -0.178979
C      -0.046331   -0.050392   -0.094588
C       1.305066   -0.357614   -0.796286
O       2.099328    0.819171   -0.821012
C       1.653456   -1.309146    0.381303
C       0.556902   -0.611579    1.237611
C       1.109588    0.463405    2.190456
C       1.846399   -0.126127    3.307003
N       2.430186   -0.611724    4.178539
H       0.092152    2.115419    0.088253
H      -0.974940    1.561071   -1.198733
H      -1.505386    1.446733    0.482652
H      -0.781015   -0.779021   -0.454149
H       1.247115   -0.805389   -1.797058
H       2.993600    0.569445   -1.075708
H       1.404641   -2.350141    0.160079
H       2.680345   -1.264512    0.755205
H      -0.099482   -1.281131    1.798826
H       1.779569    1.134798    1.644258
H       0.295549    1.074960    2.595993
