21

C       0.144850    1.529823   -0.120732
C       0.009641    0.020412    0.015721
C      -1.459542   -0.419233    0.006885
O       0.670182   -0.580751   -1.129256
C       1.213792   -1.815707   -0.754647
C       2.587934   -1.740426   -0.155449
C       1.359103   -1.857659    0.738131
C       0.737899   -0.571556    1.275160
O       1.645173    0.309092    1.915169
H       1.194965    1.825604   -0.145875
H      -0.335818    1.866053   -1.044011
H      -0.328473    2.035715    0.725169
H      -1.925248   -0.148196   -0.944519
H      -1.541521   -1.504530    0.129538
H      -2.019050    0.057772    0.818201
H       0.898098   -2.663166   -1.355650
H       3.235064   -2.609567   -0.204381
H       3.102656   -0.789419   -0.257383
H       1.235530   -2.774031    1.301632
H      -0.008494   -0.806425    2.039937
H       2.495648    0.236563    1.470530
