18

C       0.302038    1.339129   -0.626219
C       0.135747   -0.083087   -0.178019
C      -1.063508   -0.606590    0.596721
C       0.310871   -0.774794    1.157842
O       0.948742   -1.920405    0.572617
C       0.931912   -1.273109   -0.722597
C       0.350729   -2.182506   -1.811836
C       0.358555   -1.525072   -3.115352
N       0.372560   -0.975134   -4.131661
H       1.360360    1.603808   -0.726803
H      -0.177097    1.505884   -1.597385
H      -0.150342    2.031826    0.090073
H      -1.662135    0.178399    1.049313
H      -1.626640   -1.481762    0.283972
H       0.663765   -0.439575    2.125882
H       1.949852   -0.971368   -1.001119
H       0.943566   -3.102576   -1.865465
H      -0.673182   -2.472468   -1.557803
