18

C      -0.135737    1.546961    0.092771
C       0.010603    0.015766   -0.003062
C      -1.378126   -0.606220    0.052594
O      -1.847583   -1.119705    1.034623
C       0.733796   -0.456152   -1.288867
O       0.130608    0.046166   -2.465471
C       2.248536   -0.145871   -1.238929
C       2.958302   -0.644262   -2.414306
N       3.525141   -1.041399   -3.339015
H       0.834527    2.052391    0.060968
H      -0.755954    1.941136   -0.719442
H      -0.617157    1.819697    1.035268
H       0.554744   -0.353445    0.873138
H      -1.949887   -0.535344   -0.898401
H       0.624075   -1.543715   -1.368189
H       0.281506    0.996528   -2.514148
H       2.413840    0.935677   -1.164921
H       2.689505   -0.594525   -0.341843
