13

N      -0.008664    1.233483    0.007634
C      -0.037215   -0.015415    0.000669
C      -1.286617   -0.919072    0.002762
C      -0.650096   -2.275791   -0.008450
C       0.687032   -2.083967   -0.014991
O       1.403918   -3.182652   -0.025246
N       0.451871   -4.261360   -0.026341
C      -0.735888   -3.686490   -0.015877
O       1.144866   -0.819317   -0.010455
H       0.943722    1.598990    0.004318
H      -1.891292   -0.698011    0.888175
H      -1.901350   -0.688167   -0.873161
H      -1.601679   -4.334333   -0.014601
