19

C       1.218022    0.467069    0.569517
C      -0.085877   -0.207290    0.252136
N      -1.146155   -0.127377    0.965883
O      -0.947295    0.629409    2.128987
C      -0.226937   -1.062597   -0.976344
N       0.424279   -0.567980   -2.216040
C       0.790381   -1.948612   -2.610570
C       0.624192   -2.376515   -1.129843
O       1.812522   -2.457512   -0.383299
H       1.814633   -0.156112    1.245344
H       1.781366    0.633623   -0.351472
H       1.043398    1.420515    1.071323
H      -1.826509    0.628921    2.521851
H      -1.290605   -1.307648   -1.094350
H      -0.177940   -0.061885   -2.856554
H       0.068696   -2.447358   -3.272472
H       1.794625   -2.055670   -3.036197
H       0.083074   -3.303429   -0.937200
H       2.362794   -1.700594   -0.612275
