20

C       0.664366    1.019839   -0.353703
O       0.637349   -0.347993    0.024196
C       0.377063   -0.562356    1.381904
C       0.167160   -2.066039    1.599028
C       1.485074   -2.808348    1.914717
C       2.701885   -1.974024    1.486435
C       2.653406   -0.632918    2.165999
N       3.661765   -0.103543    2.716708
O       1.419753   -0.024980    2.205365
H       1.478226    1.562007    0.140178
H       0.814955    1.045415   -1.434556
H      -0.287604    1.514649   -0.111363
H      -0.502996    0.018648    1.689416
H      -0.550611   -2.203990    2.411945
H      -0.297778   -2.450476    0.687782
H       1.554277   -3.000796    2.990436
H       1.502510   -3.783253    1.420464
H       3.645776   -2.451568    1.751374
H       2.682899   -1.825360    0.401527
H       3.403890    0.798549    3.124021
