13

N      -0.015440    1.572193   -0.184585
C       0.027869    0.316226   -0.166929
C      -1.156057   -0.583616    0.105973
C      -2.422548    0.102440    0.297637
C      -3.486174    0.632615    0.462198
O       1.143561   -0.480373   -0.428036
C       2.357502   -0.112127    0.080512
O       3.361108   -0.675030   -0.219256
H       0.873372    2.002279   -0.438446
H      -1.221046   -1.294856   -0.728379
H      -0.910913   -1.198529    0.982743
H      -4.420610    1.116780    0.603769
H       2.278193    0.722233    0.797557
