15

C      -0.068625    1.291330   -0.085694
O       0.031570   -0.132799    0.043228
C       0.684898   -0.566494    1.148682
O       1.159674    0.163071    1.983046
C       0.730985   -2.031122    1.183576
C       1.290134   -2.890170    2.114759
C       1.020270   -4.174725    1.614476
N       0.345550   -4.127264    0.460797
N       0.183262   -2.823867    0.222329
H       0.925145    1.743204   -0.133187
H      -0.613946    1.467679   -1.012661
H      -0.608383    1.716533    0.763937
H       1.810275   -2.604578    3.013565
H       1.284268   -5.132165    2.037665
H      -0.303808   -2.512496   -0.601947
