17

C      -0.158494    1.353204    0.047992
N      -0.112357   -0.092685   -0.053792
C       0.572020   -0.625166   -1.007766
C       1.345503    0.029818   -2.046286
C       2.043261   -0.687323   -2.948367
O       2.082386   -2.025631   -2.970031
C       1.354858   -2.705126   -2.027269
C       0.608883   -2.096950   -1.077455
N      -0.176950   -2.760311   -0.157128
H       0.838846    1.801168    0.179370
H      -0.612166    1.823166   -0.838148
H      -0.762803    1.634895    0.914472
H       1.381989    1.109159   -2.105980
H       2.643330   -0.260024   -3.742495
H       1.450918   -3.774560   -2.152449
H       0.130049   -3.674320    0.136125
H      -0.453039   -2.136416    0.593327
