17

C      -0.064261    1.404475    0.075234
O      -0.012726   -0.014980    0.040911
C      -1.207923   -0.647320    0.006715
C      -1.369417   -2.007975   -0.010883
N      -0.514605   -3.125269    0.010895
N      -2.766015   -2.171283   -0.036382
C      -3.322436   -0.939531   -0.031669
N      -4.698699   -0.731962   -0.136955
N      -2.410104    0.014406    0.003797
H       0.974102    1.741029    0.099219
H      -0.566853    1.808237   -0.810260
H      -0.593947    1.764416    0.963982
H       0.069993   -3.174652   -0.817609
H       0.106627   -3.111220    0.813300
H      -3.232485   -3.056899   -0.135580
H      -5.235307   -1.232064    0.562899
H      -4.891896    0.259460   -0.064161
