17

C       0.277671    0.842108    0.326953
O      -0.196070   -0.024553   -0.693256
C      -1.394029   -0.632265   -0.365268
C      -1.630697   -2.034106   -0.845814
O      -0.478844   -2.767929   -1.219715
C       0.277916   -2.854679   -0.087507
N       1.459662   -3.519577   -0.257137
N      -0.193720   -2.376047    1.003148
C      -1.450892   -1.771494    0.651110
H       1.219324    1.265994   -0.029822
H      -0.430799    1.661771    0.516763
H       0.450717    0.292640    1.260005
H      -2.272207    0.016938   -0.383439
H      -2.519482   -2.343360   -1.380479
H       1.835675   -3.491367   -1.191878
H       2.133268   -3.353200    0.473654
H      -2.245503   -1.805617    1.387856
