16

N       0.171771    1.441348   -0.005364
C       0.084852    0.002752   -0.044653
C       1.090761   -0.483124   -0.988948
N       1.904606   -0.741072   -1.767460
C      -0.055763   -0.691122    1.350151
N      -1.453637   -0.098785    1.387771
C      -1.331698   -0.725642    0.010022
C      -0.671225   -1.957256    0.665242
O       0.054821   -2.811521   -0.160563
H       0.110986    1.835090   -0.937858
H      -0.593460    1.793230    0.561648
H       0.630756   -0.607196    2.193737
H      -2.059061   -0.679749    1.975067
H      -2.138180   -0.682921   -0.722509
H      -1.348918   -2.502015    1.338634
H       0.691160   -3.306387    0.366141
