22

C      -0.147110    1.455049   -0.053867
C       1.101699    0.654166    0.056453
N      -0.206843   -0.011709   -0.115773
C      -0.219687   -0.535942   -1.497717
C       0.929391    0.144383   -2.275685
C       1.963484    0.478025   -1.177714
C       3.024822    1.553500   -1.554961
C       4.036954    0.417478   -1.863751
C       3.130396   -0.557446   -1.067695
H      -0.590132    1.884663    0.840017
H      -0.321088    2.030910   -0.959613
H       1.579135    0.539240    1.026927
H      -0.054471   -1.617014   -1.431171
H      -1.201771   -0.379072   -1.954990
H       1.337738   -0.498386   -3.060316
H       0.586392    1.061884   -2.765425
H       2.766364    2.240592   -2.365765
H       3.327076    2.144319   -0.684784
H       4.069680    0.174895   -2.929349
H       5.062130    0.548268   -1.510349
H       3.466565   -0.674363   -0.032616
H       2.954994   -1.552494   -1.486529
