16

N       0.038888   -1.177484   -0.012471
C       0.011215   -0.024243   -0.075428
C       0.010275    1.433796   -0.153769
C       1.384949    2.030473    0.220511
C       1.409258    3.545675    0.088237
C       2.686491    4.234470   -0.268812
N       1.591256    4.173847   -1.238969
C       0.464990    4.235793    0.947076
N      -0.289679    4.742956    1.660853
H      -0.272203    1.730935   -1.170161
H      -0.763497    1.826412    0.515127
H       1.635847    1.744251    1.246847
H       2.160508    1.610237   -0.428118
H       2.889908    5.222312    0.131172
H       3.558780    3.601287   -0.407837
H       1.766127    3.448621   -1.931700
