17

C       0.007031    1.553693    0.001710
C      -0.055794    0.076920   -0.375968
N      -1.442331   -0.384632   -0.383177
C      -1.707038   -1.488637   -0.925246
O      -0.881103   -2.389864   -1.544904
N      -1.697224   -3.476168   -2.004461
N      -2.878352   -3.237823   -1.679076
N      -2.963100   -2.070440   -1.027140
C      -4.206194   -1.524642   -0.532639
H       1.044124    1.902255    0.030487
H      -0.541767    2.161882   -0.723676
H      -0.442387    1.718002    0.985522
H       0.418940   -0.082161   -1.355124
H       0.526731   -0.513803    0.346077
H      -5.006967   -2.208935   -0.810890
H      -4.163910   -1.417886    0.554701
H      -4.380922   -0.539937   -0.974050
