23

C      -1.550957   -0.386293    0.188838
C      -0.079620    0.024029    0.076154
C       0.753527   -0.344364    1.314963
C       0.859819   -1.866730    1.584931
C       2.292227   -2.115836    2.123104
O       2.883799   -3.328201    1.666495
C       3.025765   -0.866078    1.707565
C       2.212512    0.094044    1.261278
C       2.613790    1.469105    0.823277
H      -2.026531    0.089658    1.053970
H      -2.112941   -0.092788   -0.703175
H      -1.658770   -1.469205    0.307584
H       0.370436   -0.448059   -0.807945
H      -0.022613    1.106643   -0.090435
H       0.282897    0.149124    2.181260
H       0.084390   -2.246433    2.254334
H       0.761765   -2.413930    0.638378
H       2.291805   -2.224293    3.215722
H       3.007459   -3.240359    0.714565
H       4.102588   -0.777920    1.813375
H       3.690901    1.622948    0.929193
H       2.346565    1.654128   -0.223955
H       2.100586    2.238421    1.414860
