20

C       0.201805    1.847639    0.096680
N      -0.003597    0.412571    0.013681
C       1.003995   -0.539073   -0.422822
C       2.481864   -0.171824   -0.410286
C       2.822978    0.286506    1.039778
C       1.632437   -0.185432    1.927968
C       0.492480   -0.547285    0.985273
C       4.126813   -0.320689    1.509758
O       5.096340    0.295621    1.865314
H       1.184849    2.181534    0.456758
H       0.045888    2.278324   -0.897612
H      -0.558713    2.268826    0.761991
H       0.672797   -1.250916   -1.175928
H       3.058783   -1.066307   -0.680297
H       2.744118    0.599523   -1.141355
H       2.946196    1.369421    1.090809
H       1.904896   -1.084801    2.496069
H       1.361395    0.577333    2.664817
H      -0.242182   -1.265622    1.342836
H       4.125925   -1.438819    1.503238
