17

O      -0.002388    1.425272   -0.054070
C      -0.044963    0.046062   -0.019635
C      -0.437720   -0.810665   -1.199344
C      -1.216580   -0.912403    0.084919
N      -0.465220   -1.805216    0.996931
C       0.628294   -0.779931    1.084490
C       2.049176   -1.314445    0.863821
C       2.503562   -2.148037    1.974250
N       2.842496   -2.794515    2.870155
H       0.549327    1.700338   -0.794343
H      -0.935037   -0.246033   -1.982513
H       0.159294   -1.653920   -1.537208
H      -2.283669   -0.750534    0.164339
H      -0.932216   -1.906813    1.892090
H       0.586065   -0.215931    2.022231
H       2.084923   -1.904256   -0.057283
H       2.742540   -0.472214    0.750441
