19

C       0.012953    1.540810    0.228182
C      -0.040723    0.042222   -0.116030
C      -1.427674   -0.497019   -0.198517
C      -2.160509   -1.028896   -1.213969
C      -3.440383   -1.353554   -0.655558
O      -4.438228   -1.909193   -1.378943
C      -5.628067   -2.166568   -0.656710
C      -3.398525   -0.995502    0.660164
O      -2.164124   -0.469183    0.945381
H       1.049264    1.885132    0.296849
H      -0.496320    2.135390   -0.536296
H      -0.475991    1.734829    1.186627
H       0.449232   -0.142240   -1.077295
H       0.524295   -0.521591    0.637764
H      -1.848813   -1.181645   -2.234748
H      -6.334567   -2.611149   -1.359169
H      -5.445059   -2.865759    0.170641
H      -6.052070   -1.238716   -0.248981
H      -4.095843   -1.041106    1.476873
