18

N       0.297819    1.131098   -0.360541
C       0.147965   -0.103196   -0.151423
O      -1.060663   -0.582737    0.211622
C      -1.213524   -1.979888    0.351055
C      -2.123228   -2.459030    1.510922
C      -2.751831   -3.510911    0.545251
C      -2.171767   -2.687524   -0.608646
C      -2.846852   -2.105560   -1.766131
O      -1.849832   -3.135594   -1.905110
H       1.265257    1.325445   -0.609741
H       0.920332   -0.881202   -0.225717
H      -0.234764   -2.476397    0.363530
H      -1.627936   -2.825626    2.410481
H      -2.833418   -1.674334    1.779173
H      -2.273283   -4.490958    0.624077
H      -3.834778   -3.639323    0.575777
H      -3.865110   -2.411139   -2.002014
H      -2.552500   -1.120064   -2.120780
