19

C      -0.077163    1.472881    0.130338
C      -0.036973   -0.013018    0.003910
C      -0.067738   -0.832503   -1.105043
C      -0.045922   -2.201604   -0.680830
C       0.009822   -2.164224    0.688409
N       0.083119   -3.047460    1.790765
C      -0.112496   -2.184087    2.978624
C       0.204878   -0.728377    2.528373
N       0.000672   -0.854325    1.098946
H       0.817712    1.881339    0.618263
H      -0.142270    1.924014   -0.862790
H      -0.944433    1.819342    0.708024
H      -0.132617   -0.485056   -2.126069
H      -0.076533   -3.079730   -1.305443
H       0.974962   -3.530430    1.825811
H      -1.161120   -2.244881    3.289587
H       0.508268   -2.515414    3.813163
H      -0.473346   -0.002234    2.985069
H       1.236673   -0.427743    2.759552
