20

C       0.486229    1.599279    0.123482
C       1.380755    0.410395   -0.119211
O       2.095549   -0.121148    0.963332
C       1.172858   -0.373681    2.020330
C      -0.225886   -0.556394    1.382892
C      -0.091245    0.193895    0.067563
N      -0.487113   -1.968882    1.108342
C      -1.117409   -2.728132    2.182836
C      -1.888843   -2.348228    0.967366
H       0.539657    2.116353    1.075828
H       0.276830    2.245597   -0.722094
H       1.903781    0.280333   -1.058667
H       1.501129   -1.269023    2.554734
H       1.162126    0.467295    2.727502
H      -1.003645   -0.126385    2.039201
H      -0.749355   -0.086293   -0.745764
H      -0.760304   -3.744875    2.317907
H      -1.361337   -2.204020    3.106277
H      -2.643030   -1.570987    1.084841
H      -2.107720   -3.082155    0.197212
