20

C      -0.262414    0.899982   -1.968001
C      -0.015019   -0.209348   -0.967906
C       1.360308   -0.486623   -0.369054
C       2.581357    0.329103   -0.725692
O       3.056665    0.062071   -2.041229
C       0.240658    0.010704    0.508967
C       0.236851    1.383690    1.144329
O      -0.238928   -0.991986    1.378061
H       0.292404    1.811387   -1.733104
H       0.044247    0.589157   -2.971715
H      -1.325228    1.164106   -2.005753
H      -0.586798   -1.113427   -1.163368
H       1.574440   -1.542113   -0.212212
H       2.369020    1.401040   -0.712006
H       3.372084    0.153292    0.021033
H       3.216666   -0.884957   -2.105543
H       0.634239    2.158571    0.485959
H      -0.787624    1.675650    1.408100
H       0.828818    1.375376    2.064879
H      -1.176009   -0.822869    1.529333
