16

C      -0.034437    1.527230   -0.051825
C       0.179937    0.038256    0.020698
N       1.340822   -0.468629    0.070559
N      -1.036502   -0.687192    0.025453
C      -1.192899   -2.033544    0.083010
O      -0.313875   -2.877356    0.141698
C      -2.691060   -2.416606    0.065855
N      -2.864922   -3.747612    0.122492
O      -3.563913   -1.567370    0.007274
H       0.934647    2.023926   -0.052042
H      -0.581006    1.800441   -0.961734
H      -0.621661    1.880557    0.803539
H       1.292938   -1.487293    0.115670
H      -1.919018   -0.188569   -0.017556
H      -2.046970   -4.335188    0.168286
H      -3.790799   -4.140197    0.119402
