21

C       0.068721    1.567218    0.109467
C      -0.146186    0.054491   -0.024789
C       0.665496   -0.541258   -1.174208
C       2.217041   -0.612977   -1.102864
O       3.068170    0.230765   -1.025697
C       2.235270   -2.087708   -1.355428
C       1.343623   -2.770660   -0.319319
C       0.681452   -2.064605   -1.449783
C      -0.193701   -2.744006   -2.462988
H       1.128664    1.799123    0.245677
H      -0.270597    2.093365   -0.789677
H      -0.486610    1.969929    0.961870
H       0.122121   -0.437779    0.917334
H      -1.210715   -0.158876   -0.188323
H       0.427943   -0.005080   -2.104473
H       2.971719   -2.647448   -1.919448
H       1.361349   -3.854716   -0.384038
H       1.302163   -2.395482    0.698531
H      -1.236208   -2.774592   -2.124774
H      -0.172422   -2.217889   -3.423760
H       0.125905   -3.776849   -2.634878
