15

C       0.056852    1.522752   -0.187897
C      -0.037791    0.038721    0.094211
O       1.176147   -0.724280    0.047830
C       0.508234   -0.631781    1.299201
C       1.204752    0.121671    2.420737
C       2.156019   -0.732995    3.131835
N       2.898380   -1.415956    3.693971
C      -1.174652   -0.612526   -0.545014
N      -2.093681   -1.098774   -1.048857
H       0.941976    1.956027    0.278896
H       0.125293    1.688424   -1.266388
H      -0.834760    2.038926    0.179571
H       0.023859   -1.555213    1.615911
H       1.737548    0.992555    2.031935
H       0.455460    0.481338    3.136080
