17

C      -0.040838    1.621375   -0.018393
C      -0.005747    0.082026   -0.012572
C       0.687660   -0.468524    1.147585
C       1.263476   -0.900027    2.111801
C       1.963645   -1.428413    3.283438
C       2.018429   -2.888362    3.336353
C       2.076924   -4.091969    3.402544
C       2.121467   -5.530823    3.439036
O       2.650033   -6.179910    4.312393
H       0.971809    2.033343   -0.026900
H      -0.569085    1.985674   -0.904213
H      -0.552853    2.002002    0.869419
H      -1.030654   -0.309061   -0.040646
H       0.479589   -0.277986   -0.928552
H       2.991776   -1.040198    3.317196
H       1.487424   -1.064494    4.205224
H       1.619180   -6.019320    2.579316
