18

C      -0.025426    1.529398    0.103992
C       1.258496    0.750791   -0.077711
C      -0.054910    0.035625    0.022600
C      -0.451506   -0.999450    1.061807
N      -1.916637   -1.205259    0.916270
C      -0.974801   -1.906387   -0.001342
C      -0.614333   -0.881386   -1.066627
C      -1.194987   -0.622572   -2.378878
O       0.117375   -1.205501   -2.232957
H      -0.217988    1.989409    1.067464
H      -0.407129    2.091300   -0.742461
H       1.736193    0.759201   -1.051640
H       1.943139    0.684865    0.761684
H       0.066423   -1.240951    1.981682
H      -2.193549   -1.888819    1.622327
H      -0.945370   -2.984895   -0.086871
H      -1.960015   -1.287489   -2.776655
H      -1.207128    0.390686   -2.777942
