21

C       0.047044    1.462408    0.079274
C       1.371473    0.754497   -0.043688
C       1.741985    0.135593    1.310461
C       0.429569   -0.719311    1.257836
C       0.656001   -2.221281    1.026822
C      -0.394118   -2.783371    0.064195
O      -0.316223   -2.142132   -1.199372
C      -0.698710   -0.775840   -1.128184
C       0.053361   -0.028756   -0.065295
H      -0.243747    1.931615    1.017830
H      -0.269487    2.009027   -0.805075
H       2.057804    0.970765   -0.854186
H       2.640187   -0.485585    1.287379
H       1.831425    0.845829    2.139327
H      -0.279418   -0.561760    2.080254
H       1.636676   -2.382949    0.564206
H       0.645882   -2.772740    1.973950
H      -0.223851   -3.847560   -0.124115
H      -1.408723   -2.673460    0.486624
H      -0.525306   -0.349778   -2.122151
H      -1.783283   -0.711432   -0.922198
