13

O       0.078887    1.376373    0.104408
C       0.060932    0.049797   -0.020684
N      -0.001578   -0.520952   -1.196621
O       0.003085   -1.905488   -0.847872
C       0.067333   -1.951068    0.474249
N       0.089590   -3.139290    1.146622
C       0.053968   -4.438051    0.651030
N      -0.008624   -4.712733   -0.582342
N       0.106600   -0.783385    1.064570
H       0.126755    1.571910    1.047889
H       0.139469   -3.023945    2.146485
H       0.087938   -5.157110    1.477223
H      -0.024235   -5.720900   -0.720278
