21

C       0.175992    1.555490    0.076036
C      -0.014255    0.022593    0.026566
C       0.671743   -0.637970    1.243831
C      -1.523635   -0.362290   -0.064024
C      -2.366591    0.065485    1.116966
C      -3.604156   -0.679531    1.456273
N      -2.432943   -0.742134    2.349097
C       0.630137   -0.480872   -1.199369
N       1.127738   -0.881446   -2.162946
H       1.238181    1.811428    0.045598
H      -0.316232    2.042630   -0.770266
H      -0.242410    1.957180    1.002363
H       0.212214   -0.282143    2.169110
H       0.580726   -1.727526    1.204120
H       1.736368   -0.390872    1.266483
H      -1.934020    0.083265   -0.978533
H      -1.601541   -1.449632   -0.187084
H      -2.367308    1.134046    1.320362
H      -4.463719   -0.153778    1.861442
H      -3.849724   -1.554071    0.858754
H      -1.948366   -1.625418    2.206757
