12

N      -0.090439    1.241398    0.181000
C      -0.032550    0.006196   -0.045636
O      -1.167907   -0.737120    0.134285
C      -1.070170   -2.079016    0.074904
N       0.066971   -2.750612    0.166161
N      -0.379600   -4.032295    0.062134
C      -1.717292   -4.051739   -0.066822
N      -2.195248   -2.821238   -0.065651
H       0.809984    1.671403   -0.022438
H       0.817811   -0.584941   -0.391195
H       0.277030   -4.793854    0.104756
H      -2.293129   -4.960188   -0.157739
