19

C       0.011773    1.480173   -0.130250
C      -0.031666   -0.034200   -0.079652
O       0.627430   -0.525424   -1.265823
C       0.689940   -1.846530   -1.385405
O       0.232939   -2.635377   -0.585805
C       1.407482   -2.303104   -2.639873
N       1.313805   -3.663968   -2.798229
N       1.976960   -1.452635   -3.401111
C       2.643351   -1.972215   -4.580384
H       1.044184    1.838918   -0.154776
H      -0.503356    1.854854   -1.018822
H      -0.479018    1.893853    0.755759
H       0.483213   -0.433296    0.800021
H      -1.056583   -0.418168   -0.061811
H       0.983981   -4.168273   -1.988877
H       1.979840   -4.129550   -3.390611
H       3.052066   -1.144974   -5.165182
H       3.481967   -2.641572   -4.324364
H       1.958081   -2.542936   -5.226898
