17

C      -0.091043    1.458632   -0.016846
N       0.152417    0.032120    0.039137
C       0.676987   -0.646938   -1.029619
N       1.183363    0.039242   -2.050599
C       1.732265   -0.639643   -3.069943
C       1.792526   -2.018936   -3.129736
C       1.246923   -2.747382   -2.061891
C       0.687013   -2.067299   -1.004474
O       0.119318   -2.657671    0.094801
H       0.832465    1.985645   -0.266929
H      -0.841938    1.734936   -0.770509
H      -0.434872    1.792869    0.964843
H      -0.409059   -0.519310    0.665930
H       2.136373   -0.032728   -3.876102
H       2.241622   -2.523236   -3.976662
H       1.262815   -3.834627   -2.061297
H       0.157421   -3.614614   -0.002442
