17

O       0.832995   -0.634021   -1.078549
C       0.172384   -0.068626    0.036729
C      -1.313275   -0.432012    0.046541
C      -2.140207    0.081140    1.206156
C      -3.238358    0.695089    0.765323
C      -3.235407    0.746772   -0.725762
C      -2.109724    1.530806   -1.308566
N      -2.000238    0.066292   -1.179781
H       0.276168   -0.458501   -1.846099
H       0.656745   -0.475671    0.931118
H       0.294397    1.025944    0.067965
H      -1.359779   -1.530474    0.005526
H      -1.856908   -0.055480    2.243347
H      -4.024651    1.125525    1.373059
H      -4.148706    0.574070   -1.288757
H      -2.153434    1.874221   -2.338615
H      -1.559568    2.174807   -0.627965
