15

C      -0.052005    1.556284    0.059803
C       0.017219    0.040204   -0.000594
O      -1.256704   -0.554283   -0.168932
C       1.114513   -0.605189   -0.944987
C       1.714488   -1.273462    0.296410
O       2.060945   -0.222547    1.211970
C       0.706339   -0.676205    1.181287
H       0.927553    1.969257    0.311773
H      -0.357192    1.971333   -0.909046
H      -0.779322    1.874711    0.813232
H      -1.666536   -0.163531   -0.948087
H       0.645645   -1.314227   -1.630936
H       1.784269    0.068123   -1.486188
H       2.265272   -2.202583    0.381983
H       0.254871   -1.021658    2.104306
