19

O      -0.027130    1.435416   -0.045733
C       0.005587    0.025180   -0.009849
C      -1.436032   -0.529835    0.042983
C      -1.517133   -2.021304   -0.307279
C      -0.937215   -2.307153   -1.700166
C       0.325408   -1.532915   -1.966032
C       0.743908   -0.508899   -1.223082
C       0.784714   -0.403598    1.232085
O       1.311405    0.399127    1.964661
H       0.499711    1.729222    0.715184
H      -1.872993   -0.329747    1.027561
H      -2.008534    0.060320   -0.680950
H      -0.971473   -2.612597    0.438315
H      -2.558569   -2.355586   -0.255970
H      -0.749320   -3.380977   -1.822031
H      -1.673964   -2.052243   -2.476647
H       0.901003   -1.819909   -2.843481
H       1.651842    0.033244   -1.472610
H       0.855169   -1.492800    1.417612
