18

C      -0.889125    0.735137    0.203253
C       0.579032    0.311598    0.024098
C       1.111958   -0.410565    1.215131
N       2.009057   -0.002022    2.029891
C       2.111292   -1.001146    3.062527
C       0.843105   -1.231826    3.868028
O      -0.210970   -0.327426    3.826105
C       1.113561   -2.094459    2.664888
O       0.563212   -1.640036    1.447358
H      -0.998144    1.412102    1.055209
H      -1.247832    1.249797   -0.692334
H      -1.525785   -0.134684    0.381891
H       0.665418   -0.347668   -0.847654
H       1.218507    1.180576   -0.145076
H       3.085660   -1.156697    3.510422
H       0.991778   -1.729343    4.825796
H       0.157822    0.560181    3.899737
H       1.232943   -3.169037    2.710168
