19

C      -0.103226    1.467164   -0.009260
C       0.046389   -0.025002   -0.007944
C       0.998998   -0.860808   -0.866428
C       0.149655   -2.083997   -0.448906
C       0.401786   -2.224118    1.086320
C      -0.309844   -0.883919    1.224205
C      -1.038500   -1.073114   -0.085671
C       0.006065   -3.284596   -1.314056
O       0.529951   -3.422645   -2.392652
H       0.783443    1.954577    0.412739
H      -0.242320    1.851024   -1.026012
H      -0.967650    1.780387    0.586231
H       0.878966   -0.641699   -1.930412
H       2.064775   -0.883126   -0.611772
H      -0.190092   -3.036898    1.518510
H       1.447006   -2.316562    1.402514
H      -0.688917   -0.421688    2.127230
H      -2.082242   -1.033966   -0.363241
H      -0.651734   -4.080560   -0.892242
