15

N      -0.029719    1.328785    0.009564
C       0.064924   -0.020557    0.002703
O       1.111066   -0.647664   -0.009318
C      -1.256992   -0.728539    0.011936
C      -1.406371   -2.056419    0.009549
C      -2.861706   -2.392649    0.020729
O      -3.529806   -1.123918    0.029660
C      -2.602513   -0.120383    0.024671
N      -2.877639    1.118887    0.030183
H       0.821338    1.865672    0.002052
H      -0.942238    1.773876    0.017202
H      -0.604317   -2.781348    0.000863
H      -3.178775   -2.957877   -0.865301
H      -3.164066   -2.962634    0.908852
H      -3.883369    1.282263    0.038884
