22

C       0.079643    1.588051    0.018761
C       0.112912    0.057992    0.029099
C       0.654667   -0.536762   -1.287835
C       0.675544   -2.032982   -1.330663
C      -0.249362   -2.913635   -1.853678
C       0.212282   -4.234539   -1.609906
C       1.409261   -4.124056   -0.945229
N       1.690639   -2.788089   -0.773801
C       2.884736   -2.277299   -0.134981
H       1.082043    2.007141   -0.125798
H      -0.553472    1.964247   -0.792734
H      -0.314233    1.985461    0.959332
H       0.724090   -0.292021    0.870374
H      -0.893619   -0.340149    0.202440
H       0.027225   -0.184512   -2.114669
H       1.656814   -0.128109   -1.478428
H      -1.158669   -2.628017   -2.361940
H      -0.271769   -5.156438   -1.893364
H       2.093399   -4.874810   -0.581780
H       3.436188   -1.605909   -0.801533
H       2.652318   -1.733807    0.787199
H       3.535523   -3.116465    0.116583
