19

C       0.040361    1.535618   -0.005609
N       1.256612    0.700769    0.030457
C      -0.060124    0.055008    0.029695
C      -0.459797   -0.783101    1.246141
C      -1.484631   -1.744767    0.653900
C      -2.718040   -1.015495    0.055732
C      -1.988610   -1.096766   -1.275655
C      -0.548528   -0.738166   -1.156589
N      -0.979769   -2.097589   -0.755967
H      -0.140086    2.118130    0.894401
H      -0.220683    2.043948   -0.931267
H       1.678628    0.653755   -0.894454
H       0.416919   -1.324875    1.615935
H      -0.867338   -0.187952    2.068709
H      -1.685036   -2.630751    1.254778
H      -3.607134   -1.649649    0.059434
H      -2.979513   -0.028911    0.452162
H      -2.457681   -1.223062   -2.247392
H       0.027283   -0.699918   -2.078225
