14

C       0.108600    1.538814   -0.066884
C      -0.033085    0.039448    0.117019
O       0.771070   -0.733494   -0.822533
C       1.485742   -1.417239    0.233698
C       0.715893   -0.619362    1.254125
N       0.664304   -0.469973    2.505860
O       1.590882   -1.307884    3.150861
H       1.156076    1.842506    0.008703
H      -0.271656    1.832391   -1.049915
H      -0.466538    2.065839    0.700772
H      -1.088753   -0.260552    0.054825
H       1.298864   -2.498857    0.243443
H       2.568126   -1.241019    0.201008
H       1.447967   -1.095357    4.079582
