18

C       0.018710    1.536671    0.107249
C      -0.050603    0.015345   -0.028135
O      -1.385631   -0.461056   -0.030171
C       0.685832   -0.486963   -1.276144
C       0.678979   -2.011890   -1.450660
O       0.387292   -2.191120   -2.841422
C      -0.118266   -1.035071   -3.349200
N      -0.607388   -0.851795   -4.491811
O      -0.030454   -0.033959   -2.436170
H       1.054147    1.876910    0.212545
H      -0.408241    2.020884   -0.776700
H      -0.544015    1.855434    0.987713
H       0.424144   -0.451087    0.844667
H      -1.808230   -0.100095   -0.819699
H       1.702621   -0.076792   -1.313863
H       1.641891   -2.477230   -1.232482
H      -0.110441   -2.474807   -0.850908
H      -0.614126   -1.725407   -5.012642
