16

C      -0.028809    1.509960    0.058641
N      -0.021429    0.065932    0.098810
C      -1.266066   -0.631368    0.496074
C      -0.413264   -1.561963    1.359226
C      -0.753682   -2.487755    2.433072
O      -0.322602   -2.955799    1.144315
C       0.761204   -0.602436    1.163674
H       0.974513    1.880132   -0.176675
H      -0.705206    1.856161   -0.729830
H      -0.349512    1.973868    1.012390
H      -1.955056   -0.009998    1.091943
H      -1.818299   -1.094722   -0.328531
H      -0.051659   -2.655290    3.249361
H      -1.798732   -2.680220    2.674031
H       1.707004   -1.044411    0.832386
H       0.945163    0.031392    2.047014
