19

C      -0.004588    1.519999    0.025377
C       1.323759    0.764282    0.011043
C       0.026017    0.031283   -0.004676
C      -0.569895   -1.023647    0.927020
C      -1.814453   -1.123578   -0.029244
C      -2.220375   -2.590482   -0.059136
O      -0.930835   -3.229633   -0.071160
C      -0.048245   -2.126390   -0.048286
C      -0.568597   -0.985168   -0.979000
H      -0.289459    2.019803    0.946134
H      -0.288161    2.056561   -0.874867
H       1.915076    0.802204   -0.898727
H       1.913769    0.765389    0.922451
H      -0.574662   -1.047650    2.017552
H      -2.581404   -0.350246   -0.014154
H      -2.787203   -2.904671    0.826213
H      -2.785987   -2.868664   -0.957216
H       0.990245   -2.452084   -0.054154
H      -0.571879   -0.965140   -2.069618
