18

N       1.159075   -0.746899    0.130220
C       0.022957    0.032212   -0.004803
O       0.071795    1.249567    0.031399
N      -1.144106   -0.681547   -0.235115
C      -1.198614   -2.138383   -0.393088
C      -2.588482   -2.383250   -1.002627
C      -3.426207   -1.228024   -0.440008
C      -2.437734   -0.085471   -0.297390
N      -2.758945    1.135012   -0.241601
H       1.952235   -0.214635    0.454283
H       1.084153   -1.675423    0.513620
H      -0.388487   -2.485955   -1.039858
H      -1.101403   -2.643160    0.580266
H      -2.527024   -2.309306   -2.092705
H      -2.976777   -3.372319   -0.752956
H      -4.268310   -0.931942   -1.065359
H      -3.822010   -1.477756    0.552270
H      -1.924586    1.713924   -0.135320
