19

C      -0.021276    1.560339   -0.035937
C      -0.082486    0.063969    0.120925
O       1.149584   -0.661729   -0.090516
C       0.590901   -0.651675    1.207718
C       1.313032   -0.147464    2.442263
C       0.305481   -0.042126    3.554850
C       0.858530   -1.399203    3.210957
C       0.209787   -1.962388    1.937736
O      -1.118633   -2.421207    1.955238
H       0.842673    1.973510    0.490832
H       0.055709    1.835206   -1.093045
H      -0.929089    2.024378    0.365192
H      -0.947202   -0.426743   -0.329143
H       2.275905    0.345145    2.457534
H       0.667799    0.379288    4.486761
H      -0.725213    0.226902    3.330036
H       1.412835   -1.982106    3.935590
H       0.806846   -2.777949    1.519343
H      -1.652068   -1.774331    2.429221
