21

C       0.009520    1.544816    0.024522
C      -0.067664    0.051238    0.287895
O      -1.245804   -0.453716   -0.324186
C      -1.388198   -1.834247   -0.218066
C      -2.082806   -2.499769    1.012956
C      -3.419630   -1.853365    0.596356
C      -2.740418   -2.440818   -0.673364
C      -3.280156   -2.632347   -2.054639
O      -2.374688   -3.644281    0.126459
H       0.910114    1.965801    0.481310
H       0.038859    1.743401   -1.050545
H      -0.862738    2.054681    0.443341
H       0.815667   -0.462890   -0.124179
H      -0.084786   -0.151569    1.370338
H      -0.507238   -2.385429   -0.572244
H      -1.696994   -2.726643    2.006526
H      -4.312168   -2.387046    0.926527
H      -3.505485   -0.768070    0.663772
H      -3.446880   -1.658904   -2.526073
H      -2.572096   -3.198251   -2.667737
H      -4.230231   -3.174141   -2.028293
