23

C       0.006265    1.454357   -0.187400
C       0.093725   -0.041821    0.013902
C       1.442188   -0.743960   -0.000900
C       0.648775   -0.630870    1.281778
O       1.085163    0.311317    2.231167
C       0.005920   -1.866181    1.885466
C       0.965043   -2.677483    2.764864
C       0.320048   -3.924055    3.354363
O       1.288702   -4.579489    4.159699
H       0.808504    1.964968    0.349181
H       0.079319    1.710692   -1.249937
H      -0.944808    1.847984    0.187617
H      -0.725601   -0.604944   -0.427259
H       1.530444   -1.711407   -0.484747
H       2.319517   -0.110909   -0.090186
H       1.910249   -0.009532    2.609460
H      -0.862548   -1.552175    2.479578
H      -0.376112   -2.497926    1.073805
H       1.845268   -2.980824    2.184737
H       1.326459   -2.058689    3.595003
H      -0.564966   -3.639212    3.946818
H      -0.032046   -4.580482    2.541189
H       0.882540   -5.363347    4.540624
