13

O      -0.129702    0.053923    0.002883
C       0.001201    1.237698    0.008104
C       1.397525    1.982526   -0.000958
C       1.384208    2.822127   -1.208739
C       1.299442    3.480473   -2.208983
C       1.406932    2.808928    1.215935
C       1.340987    3.456329    2.224704
C       2.506541    1.026422   -0.016556
C       3.404554    0.232118   -0.029299
H      -0.839774    1.958258    0.019848
H       1.254254    4.070941   -3.091157
H       1.312346    4.037150    3.113947
H       4.200784   -0.470957   -0.040576
