15

N      -0.077924    1.269140   -0.489875
C       0.017591    0.097715   -0.006810
N      -1.187821   -0.474126    0.417114
C      -1.494577   -1.681661    0.945832
C      -0.652748   -2.660248    1.363652
C       0.776139   -2.603304    1.375094
N       1.619890   -1.768680    0.862150
C       1.340616   -0.656915    0.080640
N       2.265967   -0.113212   -0.616917
H       0.849716    1.557881   -0.805997
H      -1.957057    0.149969    0.213289
H      -2.564625   -1.830148    1.050768
H      -1.108064   -3.544369    1.793030
H       1.247786   -3.423619    1.923197
H       3.127184   -0.645313   -0.475997
