17

C      -0.155585    1.541701    0.058550
C       0.104827    0.027854   -0.023372
C       0.750404   -0.524118    1.212684
N       2.028522   -0.822077    1.206304
O       2.321331   -1.286870    2.485211
C       1.197964   -1.254818    3.217270
C       0.152214   -0.783845    2.491210
C      -1.271905   -0.596830    2.909648
H       0.781715    2.086696    0.202117
H      -0.622995    1.900928   -0.863089
H      -0.820709    1.792487    0.890732
H      -0.840875   -0.498563   -0.200909
H       0.757609   -0.189574   -0.873489
H       1.289196   -1.601210    4.235872
H      -1.557704    0.460857    2.928625
H      -1.961261   -1.103821    2.225266
H      -1.442740   -1.001584    3.910737
