19

C      -0.096635    1.561112   -0.054810
C       0.018405    0.037304    0.025550
C       0.773075   -0.487270    1.268334
C       2.215715    0.030962    1.357518
N       0.033689   -0.142402    2.502401
C      -0.299156   -1.247288    3.044131
N       0.098874   -2.399214    2.372974
C       0.788211   -2.029641    1.222998
O       1.270642   -2.770328    0.401626
H       0.878134    2.038583   -0.190594
H      -0.722198    1.847507   -0.905716
H      -0.549009    1.963733    0.855203
H      -0.986926   -0.400950    0.033500
H       0.525987   -0.365007   -0.858467
H       2.225953    1.118117    1.453651
H       2.722855   -0.388889    2.230961
H       2.771101   -0.262366    0.462271
H      -0.857923   -1.334483    3.970936
H      -0.075021   -3.351957    2.649921
