18

C       0.223051    1.638638    0.069555
C       0.043888    0.116051    0.015537
C       0.729086   -0.507371   -1.214958
C       2.160808   -0.827580   -0.767709
O       3.077926   -1.118353   -1.489971
C       2.214395   -0.724158    0.760586
C       0.742734   -0.611520    1.192404
O       0.522842    0.093366    2.399462
H       1.277393    1.929894    0.005602
H      -0.298100    2.108984   -0.770172
H      -0.177556    2.044196    1.000377
H      -1.026923   -0.107783    0.032453
H       0.262197   -1.461230   -1.495516
H       0.724944    0.122386   -2.108308
H       2.765257   -1.562689    1.194606
H       2.750599    0.195623    1.026192
H       0.316592   -1.625672    1.263237
H       0.942688   -0.393595    3.115011
