14

O       0.154328    1.381785   -0.216400
C       0.068670   -0.017756   -0.009474
C       0.498538   -0.469152    1.441379
O      -0.685395   -0.885063    2.198364
C      -1.649985   -1.001574    1.272264
N      -2.893501   -1.442891    1.327473
N      -3.271407   -1.256203    0.040800
N      -2.376074   -0.745605   -0.801949
C      -1.318774   -0.576671   -0.012219
H      -0.608084    1.794235    0.205081
H       0.741098   -0.457397   -0.750271
H       1.176175   -1.327074    1.403642
H       0.972371    0.354632    1.977628
H      -4.193804   -1.515897   -0.267162
