21

C      -0.158620    1.509137    0.042556
C      -0.000087   -0.006448    0.011927
C      -1.329153   -0.786587   -0.103746
C      -1.047427   -2.160812    0.531581
C      -0.087333   -1.841058    1.695502
C       0.820908   -0.725230    1.157868
C       1.903941   -1.170021    0.125188
C       1.072775   -0.504354   -0.979873
O       1.198491   -0.394502   -2.166502
H       0.804499    2.014789    0.169104
H      -0.599979    1.868287   -0.892818
H      -0.811556    1.814608    0.867601
H      -2.099983   -0.256916    0.470380
H      -1.678406   -0.849983   -1.138597
H      -1.956926   -2.671501    0.859100
H      -0.558004   -2.819428   -0.196193
H      -0.660696   -1.464985    2.551425
H       0.472898   -2.715309    2.042545
H       1.208950   -0.073307    1.942241
H       2.888468   -0.709556    0.255103
H       2.049167   -2.248505    0.000921
