18

C       0.033900    1.477997    0.062905
C       0.022444   -0.011068   -0.042695
C      -0.042721   -0.840406   -1.140531
C      -0.031736   -2.189831   -0.673559
N      -0.118843   -3.381150   -1.446008
C       0.037645   -2.155062    0.703551
C       0.057625   -3.268842    1.693412
N       0.085935   -0.821421    1.065041
H       0.945279    1.854851    0.545141
H      -0.016293    1.921364   -0.934351
H      -0.819119    1.862548    0.637329
H      -0.093994   -0.516706   -2.170461
H      -0.373829   -3.167804   -2.403004
H       0.765932   -3.877225   -1.478116
H       1.053090   -3.454404    2.120742
H      -0.624752   -3.084459    2.532805
H      -0.265555   -4.188271    1.197399
H       0.135531   -0.491563    2.013378
