20

C       0.385933    1.506696   -0.302771
C       0.267522    0.015064   -0.043198
O       0.543856   -0.665419   -1.265233
C       0.452434   -2.077655   -1.185476
C       0.561688   -2.653273   -2.597954
C       2.077240   -2.863551   -2.808144
N       2.546109   -3.084107   -1.449485
C       1.709276   -2.629551   -0.470064
O       1.937675   -2.612262    0.722218
H       1.399801    1.762412   -0.624114
H      -0.310961    1.821109   -1.085242
H       0.161156    2.067606    0.609332
H       0.963270   -0.308726    0.739942
H      -0.749881   -0.242691    0.294929
H      -0.460302   -2.377581   -0.654005
H       0.046789   -3.617104   -2.641231
H       0.118639   -1.984569   -3.337208
H       2.293435   -3.724443   -3.448130
H       2.546090   -1.978378   -3.257251
H       3.499255   -3.324368   -1.225364
