15

C       0.209260    1.360448   -0.077608
O      -0.129727   -0.002675    0.103837
C       0.608709   -0.631093    1.140274
C      -0.001070   -1.933475    1.419592
C      -0.493139   -2.996819    1.677663
C       2.035893   -0.778991    0.808947
C       3.210830   -0.874138    0.537408
C       4.531518   -0.989130    0.231460
C       5.703782   -1.088300   -0.039424
H       1.255585    1.484581   -0.386144
H      -0.444863    1.739719   -0.864733
H       0.040525    1.941762    0.841827
H       0.542548   -0.015696    2.056878
H      -0.929105   -3.940494    1.896290
H       6.734394   -1.179599   -0.278312
