18

O      -0.088348    1.384653   -0.122510
C      -0.068774   -0.006481   -0.003642
C      -0.524620   -0.657965    1.268148
C      -1.422746   -0.680129    0.052627
C      -2.729430    0.082088   -0.079653
C      -3.404709   -0.572217   -1.312190
N      -2.768281   -1.880763   -1.379983
C      -1.570530   -1.962720   -0.719939
O      -0.781635   -2.885540   -0.762812
H       0.622947    1.740357    0.420107
H       0.697964   -0.517963   -0.583884
H      -0.066653   -1.600384    1.549982
H      -0.822427   -0.003951    2.081492
H      -3.351953   -0.065870    0.808529
H      -2.575072    1.153706   -0.212954
H      -4.488022   -0.664295   -1.188677
H      -3.218946    0.010961   -2.224652
H      -2.991004   -2.560578   -2.090024
