16

O       0.132136    0.073328    0.383072
C      -0.003456    1.254700    0.172021
C      -1.263524    2.016825   -0.278082
C      -0.820307    3.455816   -0.291253
C       0.472490    3.511532    0.049646
C       1.392807    4.697457    0.132463
C       2.196011    4.719563    1.353918
C       2.864370    4.702155    2.352187
N       0.979684    2.224338    0.295429
H      -1.580712    1.643779   -1.259440
H      -2.085086    1.805864    0.415929
H      -1.439078    4.301557   -0.550525
H       2.069188    4.694977   -0.734788
H       0.793022    5.610249    0.053398
H       3.449354    4.705045    3.238744
H       1.880024    2.037495    0.707491
