18

C       0.022958    1.344171   -0.059965
O      -0.069938   -0.070789   -0.118472
C      -1.355072   -0.551620   -0.043050
C      -2.393585   -0.502563    1.107846
N      -3.082637   -1.379445    0.047550
C      -2.580277   -0.338710   -0.973324
C      -1.714343   -2.061501   -0.102144
C      -1.416381   -2.883084   -1.326810
O      -2.111846   -2.984398   -2.305718
H       1.081620    1.596232   -0.140932
H      -0.522827    1.817584   -0.887224
H      -0.366544    1.735136    0.889990
H      -2.165303   -1.031054    2.036654
H      -2.925400    0.433900    1.289354
H      -3.112111    0.612322   -0.898214
H      -2.549120   -0.712468   -1.993903
H      -1.425803   -2.635240    0.786852
H      -0.445232   -3.424750   -1.253881
