23

C       0.109798    1.450114   -0.347247
C      -0.064144    0.035268    0.213037
C      -1.489040   -0.548769    0.079452
C      -2.529407    0.307242    0.804698
O      -1.886669   -0.549818   -1.299719
C      -1.473346   -2.005566    0.631871
C      -2.830811   -2.704045    0.580617
C      -3.203760   -3.392260   -0.716723
O      -3.574242   -2.685849    1.536337
H       1.166648    1.732966   -0.351374
H      -0.265438    1.510740   -1.372544
H      -0.426917    2.192904    0.249500
H       0.626160   -0.646174   -0.305748
H       0.229142    0.009539    1.269263
H      -2.564269    1.308202    0.370033
H      -3.523928   -0.134782    0.722755
H      -2.285692    0.390428    1.867373
H      -1.185659   -0.972283   -1.809011
H      -0.732064   -2.579660    0.061178
H      -1.157152   -1.983964    1.678666
H      -2.467984   -4.166414   -0.964236
H      -4.194960   -3.839439   -0.632859
H      -3.183038   -2.654299   -1.525230
