16

O       0.340812    0.820738    0.807854
C      -0.105556   -0.236699    0.006347
C      -1.608639   -0.251119   -0.140665
N      -2.134547    0.473781   -1.311519
C      -2.133180   -0.995183   -1.302841
C      -1.133564   -1.658280   -2.225850
O       0.091946   -0.926442   -2.366150
C       0.567142   -0.163051   -1.369472
O       1.529288    0.539291   -1.545117
H       1.079648    1.216538    0.318606
H       0.194306   -1.206265    0.448718
H      -2.171466   -0.229268    0.788005
H      -3.065694    0.833605   -1.123322
H      -3.075965   -1.529166   -1.210388
H      -0.909709   -2.670199   -1.863718
H      -1.527015   -1.741034   -3.242792
