15

O       0.119318    1.353372   -0.228276
C      -0.001923   -0.007623   -0.045260
C      -0.473028   -0.882907   -1.204393
C      -1.311265   -0.754636    0.043062
N      -1.136348   -1.795924    1.035039
C       0.174236   -1.880863    1.493804
N       0.760637   -2.758338    2.202275
C       0.873781   -0.623822    0.991996
O       1.878391   -0.112708    1.418883
H       0.929148    1.604651    0.241064
H      -0.776390   -0.301008   -2.068420
H       0.015025   -1.827897   -1.419627
H      -2.260489   -0.232252    0.034367
H      -1.647640   -2.659574    0.911147
H       0.134229   -3.529561    2.445986
