18

N      -0.054042    1.273473   -0.054310
C      -0.024300    0.014275   -0.022933
O       1.114331   -0.754867   -0.031052
C       0.722766   -2.144093    0.059328
C      -0.636100   -2.167476   -0.649781
C      -1.221522   -0.918619    0.029754
C      -1.504935   -1.268017    1.505652
O      -0.310214   -1.596791    2.201810
C       0.540146   -2.514890    1.537478
H       0.893445    1.656066   -0.064072
H       1.506806   -2.743731   -0.407194
H      -0.522180   -2.037665   -1.729409
H      -1.206136   -3.079769   -0.457540
H      -2.100208   -0.483752   -0.445552
H      -1.924891   -0.408616    2.033907
H      -2.229515   -2.097995    1.551266
H       0.152685   -3.546179    1.600898
H       1.495150   -2.472762    2.068294
