19

C       0.054600    1.513482   -0.229654
C       0.020327    0.064470   -0.094363
C      -0.011082   -1.135668    0.017043
C      -0.033116   -2.559532    0.156795
C      -0.456920   -3.446357   -1.021583
C      -1.314009   -3.377803    0.208456
O      -1.213021   -4.385299    1.171408
C       0.171624   -4.575034    1.469600
C       0.875247   -3.229648    1.190249
H       0.868337    1.946358    0.363115
H       0.211146    1.815054   -1.271599
H      -0.880561    1.972486    0.111043
H      -0.815706   -2.925366   -1.901525
H       0.113021   -4.346101   -1.227760
H      -2.298883   -2.928413    0.180432
H       0.246879   -4.897222    2.511313
H       0.587269   -5.373116    0.839387
H       1.901423   -3.371107    0.839592
H       0.905915   -2.603588    2.086617
