20

C      -0.041822    1.597205   -0.141449
C       0.117926    0.088429   -0.096087
O       1.301979   -0.365757   -0.797264
C       1.887269   -0.906315    0.401793
C       0.611526   -0.570473    1.223149
N       0.668966    0.259916    2.403380
C       1.122833   -0.408922    3.612971
C       0.822611    0.438657    4.839392
O       1.490686    0.448735    5.839093
H       0.854960    2.111515    0.218975
H      -0.211739    1.917007   -1.173816
H      -0.895359    1.913989    0.465602
H      -0.779489   -0.389114   -0.510998
H       2.145521   -1.966844    0.294375
H       2.785685   -0.352345    0.712034
H       0.034922   -1.464980    1.476026
H       1.235046    1.083715    2.229000
H       0.539117   -1.334999    3.728699
H       2.185403   -0.698022    3.635459
H      -0.097940    1.056127    4.732940
