16

C      -0.049706    1.598062   -0.026533
C       0.052476    0.088392   -0.043286
C      -1.073649   -0.619930    0.671084
O      -2.071131   -0.072041    1.059167
C       0.572878   -0.730299   -1.199143
N       1.295008   -0.693130    0.138965
C       2.415372    0.102821   -0.480849
C       1.723725   -0.007533   -1.853846
O       2.048330    0.192861   -2.985485
H       0.602610    2.086095   -0.750768
H      -1.082066    1.875568   -0.250310
H       0.179458    1.981879    0.972723
H      -0.895337   -1.707031    0.812407
H       0.054755   -1.604698   -1.580187
H       2.595505    1.084660   -0.039725
H       3.338236   -0.483401   -0.463149
