23

C      -0.659118    1.767683    0.371714
C      -0.380042    0.269696    0.233760
C      -1.645919   -0.604378    0.123338
C      -1.296273   -2.107977    0.004815
C      -0.558329   -2.694992    1.212220
O      -2.451919   -0.398411    1.305129
C      -3.784735   -0.040362    0.956503
C      -3.769166    0.117515   -0.538080
C      -2.564747   -0.187266   -1.003514
H       0.274389    2.325604    0.492908
H      -1.178073    2.167206   -0.505011
H      -1.284603    1.958507    1.248000
H       0.245309    0.078534   -0.648036
H       0.194770   -0.069161    1.101754
H      -2.237973   -2.649905   -0.140275
H      -0.708225   -2.259691   -0.909839
H       0.455896   -2.297180    1.311726
H      -1.102786   -2.473053    2.133932
H      -0.474435   -3.782070    1.117267
H      -4.492146   -0.820696    1.282903
H      -4.065412    0.886569    1.479404
H      -4.634698    0.423607   -1.112363
H      -2.246577   -0.180556   -2.038847
