20

C      -0.097422    1.430292    0.008993
N       0.072063   -0.011328   -0.017833
C       0.036193   -0.748004    1.228671
C      -1.377864   -0.984878    1.765997
O      -2.051050   -1.806977    0.833946
C      -1.357799   -1.654734    3.137651
O      -2.718915   -1.904139    3.472315
C       0.156449   -0.661778   -1.216608
O       0.134509   -0.130818   -2.306891
H       0.671217    1.896693    0.636991
H      -0.003164    1.791468   -1.015134
H      -1.082521    1.716230    0.396564
H       0.505320   -1.724657    1.067202
H       0.631066   -0.211512    1.979017
H      -1.898636   -0.018513    1.874760
H      -2.858996   -2.098416    1.274713
H      -0.786640   -2.592929    3.075811
H      -0.876083   -1.000284    3.879916
H      -2.750858   -2.533892    4.197562
H       0.264155   -1.753824   -1.079980
