19

C       0.014525    1.686725   -0.229116
C      -0.017744    0.164968   -0.102584
C      -1.357761   -0.376335   -0.535642
O      -1.979378   -1.240060    0.033043
C       1.202606   -0.636746   -0.669485
C       2.089320   -0.298819    0.579777
C       2.462162   -1.776639    0.798857
C       0.993356   -1.818943    0.339439
C       0.632692   -0.509812    1.127631
H       1.009742    2.084044   -0.015265
H      -0.259635    2.004083   -1.241935
H      -0.690682    2.157148    0.465305
H      -1.757433    0.086360   -1.470684
H       1.539227   -0.712265   -1.705380
H       2.709848    0.588130    0.709339
H       3.206885   -2.203975    0.119531
H       2.662421   -2.083382    1.830387
H       0.336683   -2.674742    0.199116
H       0.318458   -0.456748    2.170617
