20

C       0.184689    1.570644    0.057443
C       0.027686    0.056073    0.024892
C       0.815453   -0.752891   -1.037440
C       1.392901   -1.574926    0.132891
C       2.736374   -1.106753    0.738485
C       1.900926   -0.270645    1.745946
N       0.613087   -0.760134    1.156109
C      -1.457052   -0.286929    0.068250
O      -2.074072   -0.841232   -0.803318
H       1.234862    1.871654    0.017675
H      -0.317274    2.010714   -0.810896
H      -0.262375    1.998552    0.961848
H       0.170820   -1.296265   -1.730398
H       1.553883   -0.178380   -1.602991
H       1.207657   -2.651944    0.116745
H       3.335021   -1.898711    1.193129
H       3.374195   -0.536748    0.057268
H       1.993350   -0.593564    2.787017
H       2.043720    0.812875    1.718459
H      -1.931588    0.004332    1.032173
