16

C      -0.133422    1.505157   -0.030469
N       0.059733    0.050845    0.012712
C       0.742983   -0.497349   -1.154745
C       0.575555   -2.034530   -1.278137
O      -0.311550   -1.865240   -2.428338
C      -0.203004   -0.507070   -2.394453
O      -0.717118    0.293512   -3.103250
C       2.086821    0.014305   -1.402813
C       3.194356    0.451601   -1.571248
H       0.804635    2.074117   -0.111282
H      -0.762177    1.758630   -0.886942
H      -0.653807    1.810280    0.880804
H       0.601605   -0.190849    0.837752
H       1.469803   -2.592587   -1.556223
H       0.044433   -2.493631   -0.443536
H       4.170109    0.839337   -1.733981
