17

C      -0.096339    1.559260    0.012233
C       0.029200    0.063192   -0.022877
C       0.742113   -0.779324   -1.108948
N       1.614367   -1.307266   -0.062944
C       0.972336   -0.659570    0.984797
O       1.118484   -0.702470    2.175503
C      -0.611840   -1.481806   -1.352451
C      -1.183053   -2.079417   -0.133060
N      -1.315679   -0.621500   -0.312721
H       0.888199    2.036899    0.013714
H      -0.667941    1.918842   -0.847989
H      -0.625363    1.860389    0.922158
H       1.240310   -0.346082   -1.975396
H       2.193629   -2.136163   -0.038906
H      -1.045947   -1.623250   -2.336945
H      -2.137124   -2.587514   -0.236816
H      -0.544763   -2.482051    0.647570
