18

C      -0.034365    1.401513   -0.015017
N      -0.014947   -0.050890   -0.029151
C       0.562325   -0.643843    0.933679
N       1.212475   -0.120303    2.057091
C       1.682421   -1.180010    2.823596
N       1.431924   -2.345999    2.360297
C       0.708134   -2.119389    1.134245
C      -0.389709   -3.075292    0.708196
C       0.898439   -3.050734   -0.047715
H       0.978418    1.835688   -0.033983
H      -0.563185    1.769169   -0.897881
H      -0.551138    1.806763    0.870084
H       1.317093    0.855543    2.271578
H       2.219612   -0.985917    3.745216
H      -0.579859   -3.905906    1.377245
H      -1.257986   -2.610962    0.254123
H       0.912085   -2.569636   -1.019336
H       1.598603   -3.864349    0.098935
