16

O      -0.023141   -0.010209   -0.066334
C       0.011868    1.182129    0.014697
C      -1.076955    2.295071    0.059021
C       0.012985    3.364242   -0.230154
N       0.477417    4.078013    0.986099
C       1.530330    3.070576    1.209146
C       2.864295    3.149359    0.417771
O       2.389749    2.219035   -0.595239
C       1.100732    2.233429   -0.041782
H      -1.809750    2.169226   -0.742740
H      -1.593628    2.408459    1.014262
H      -0.098197    3.939359   -1.149244
H       0.821936    5.018844    0.825513
H       1.602375    2.679132    2.225314
H       3.093432    4.135525   -0.003740
H       3.744290    2.751770    0.933354
