19

C      -0.317710    1.447136    0.022876
C       1.135811    1.092869   -0.061307
C       0.094946   -0.016099    0.030674
C      -0.008508   -0.775553    1.297724
C      -0.168734   -2.096371    1.368141
C      -0.245243   -3.005389    0.171330
C      -0.331763   -2.268542   -1.147259
O      -1.464303   -1.412448   -1.323515
C      -0.167628   -0.808567   -1.210662
H      -0.697189    1.862218    0.950295
H      -0.811307    1.820542   -0.867708
H       1.646136    1.225084   -1.009938
H       1.763094    1.259625    0.807126
H       0.052883   -0.190568    2.212859
H      -0.238017   -2.573878    2.341839
H       0.637641   -3.661379    0.145732
H      -1.107785   -3.680879    0.260542
H      -0.081078   -2.858047   -2.030388
H       0.190480   -0.359576   -2.138500
