18

C       0.051183    1.512038   -0.066767
C      -0.019392   -0.007172    0.028024
O       0.697431   -0.508547    1.155466
C      -1.477192   -0.521365    0.060892
O      -2.228253   -0.036592   -1.034858
C      -1.509591   -2.042553    0.091359
C      -2.707185   -2.785976   -0.305247
O      -1.600708   -2.643506   -1.212812
H       1.091269    1.843923   -0.123897
H      -0.491465    1.865710   -0.945803
H      -0.410276    1.974391    0.816366
H       0.476457   -0.453653   -0.843441
H       0.433117    0.010683    1.923220
H      -1.952120   -0.134816    0.975400
H      -2.077006   -0.675348   -1.747935
H      -0.785035   -2.507638    0.754927
H      -2.865441   -3.795307    0.069066
H      -3.602206   -2.236470   -0.587587
