16

C       0.045477   -1.220746   -0.009997
C       0.018238   -0.019302   -0.024026
C      -0.000069    1.438915    0.007775
C      -0.177730    2.125990    1.424125
N       1.127960    2.849867    1.321194
C       2.160161    1.801538    1.208357
C       1.381412    2.146469    0.008088
C      -0.910406    1.982968   -0.992356
C      -1.650570    2.454434   -1.812680
H       0.064022   -2.282650   -0.015451
H      -1.010057    2.828901    1.434688
H      -0.248026    1.438636    2.271602
H       3.169584    2.194619    1.275063
H       2.004674    0.842681    1.697298
H       1.786577    2.654385   -0.859875
H      -2.308711    2.861503   -2.540034
