19

O      -0.085537    1.357991    0.012531
C       0.073619   -0.030440   -0.002183
C       0.843448   -0.739605    1.144731
C       0.237188   -2.122963    0.810215
C      -1.231729   -1.799942    1.172870
C      -1.342696   -0.804514    0.005362
O      -1.218667   -1.748562   -1.071964
C       0.155121   -2.083485   -0.809294
C       0.777573   -0.731223   -1.193600
H       0.787133    1.764854    0.000118
H       1.927684   -0.661371    1.026152
H       0.575029   -0.396745    2.146258
H       0.699129   -3.007696    1.244532
H      -1.944758   -2.614259    1.038418
H      -1.327807   -1.385492    2.178629
H      -2.224263   -0.177955   -0.112930
H       0.444875   -2.984338   -1.347039
H       0.431070   -0.423117   -2.180638
H       1.866897   -0.658221   -1.134113
