14

N       0.044053    1.435668    0.163668
C       0.032320    0.042266    0.039746
C      -1.042288   -0.813066   -0.002498
O      -0.664121   -2.150506   -0.032864
C       0.684548   -2.125409   -0.020591
C       1.150624   -0.843792    0.026776
O       2.507674   -0.823070    0.034420
C       2.878761   -2.148869   -0.008296
C       1.807760   -2.999020   -0.043234
H       0.806355    1.864843   -0.345016
H      -0.829481    1.863758   -0.113831
H      -2.104070   -0.634429   -0.000930
H       3.941633   -2.323870   -0.006763
H       1.848691   -4.075238   -0.078408
