18

C      -0.013763    1.408357   -0.024374
O      -0.007484   -0.016933    0.016005
C       0.623894   -0.595930    1.058161
N       1.199209    0.159191    1.979706
C       1.814609   -0.462382    2.996406
C       1.891310   -1.839982    3.151564
C       2.599565   -2.469700    4.322384
C       1.270318   -2.611520    2.155103
C       0.629824   -1.999874    1.097533
H       1.003824    1.806993   -0.070541
H      -0.565309    1.671436   -0.928252
H      -0.507567    1.826627    0.857499
H       2.276466    0.191083    3.734777
H       1.918164   -3.080520    4.925773
H       3.414661   -3.125676    3.995964
H       3.029384   -1.707002    4.977657
H       1.294281   -3.696121    2.216895
H       0.140779   -2.561918    0.311392
