19

C       0.387103    0.988126   -0.366352
O      -0.337147    0.193980    0.554125
C       0.466053   -0.551910    1.403893
C      -0.293090   -1.491148    2.356851
C       0.802949   -2.564459    2.123150
C       1.234252   -1.808067    0.821536
O       0.521379   -2.251742   -0.322229
C       2.660215   -1.686587    0.560789
C       3.842419   -1.603561    0.350918
H       0.966134    0.367692   -1.061283
H      -0.344803    1.570194   -0.930985
H       1.072287    1.678574    0.149363
H       1.189893    0.082853    1.938547
H      -0.460341   -1.142270    3.376784
H      -1.244506   -1.780516    1.907082
H       1.587885   -2.549424    2.882294
H       0.473730   -3.592711    1.961574
H       0.957966   -3.049485   -0.641055
H       4.884527   -1.521605    0.162908
