18

O      -0.022462    0.129321    0.447370
C       0.070239    1.332990    0.341010
C       1.321711    2.032867    0.045702
C       1.453687    3.359618   -0.100093
C       2.877221    3.727934   -0.445105
N       3.626302    2.469596   -0.327867
C       4.172173    2.163643    1.025565
C       3.413992    0.813991    1.043190
C       2.644767    1.343046   -0.193028
H      -0.817455    1.992369    0.467366
H       0.647385    4.081562   -0.017589
H       2.934172    4.144945   -1.462406
H       3.292783    4.492820    0.224693
H       5.265155    2.121386    1.058503
H       3.827408    2.861870    1.801091
H       4.043110   -0.047047    0.812609
H       2.816368    0.593169    1.927715
H       2.591364    0.661870   -1.049785
