16

N      -0.035426    1.516488    0.072385
C       0.006892    0.061712    0.012182
C      -1.432143   -0.503273    0.002527
C      -2.131762   -0.084548   -1.213577
N      -2.639761    0.253143   -2.195193
C      -1.424204   -2.056415    0.122842
O      -0.699997   -2.489941    1.253296
C      -2.796605   -2.596343    0.134941
N      -3.869716   -3.017820    0.206562
H       0.892745    1.884589    0.249968
H      -0.337241    1.900852   -0.818329
H       0.548383   -0.354752   -0.853969
H       0.495771   -0.317129    0.912613
H      -1.967176   -0.083575    0.862715
H      -0.898857   -2.470170   -0.744574
H      -1.224361   -2.316194    2.044301
