17

C      -0.075630    1.535738    0.001163
C       0.039159    0.019491   -0.018753
O       0.859428   -0.431237   -1.113816
C       1.897953   -1.178456   -0.644903
N       2.806262   -1.736450   -1.319122
N       1.814123   -1.240031    0.742877
C       2.771551   -1.948386    1.569398
C       0.728075   -0.546056    1.221672
O       0.398354   -0.407643    2.375224
H       0.913861    1.996752    0.067283
H      -0.570801    1.894073   -0.904309
H      -0.661534    1.837639    0.873169
H      -0.950048   -0.441852   -0.121945
H       2.673523   -1.561588   -2.313052
H       2.784768   -3.009404    1.308823
H       3.774750   -1.542390    1.419352
H       2.460819   -1.817010    2.606648
