15

N       0.125669    1.377559    0.145700
C      -0.020002   -0.002438    0.027484
C      -1.170431   -0.703091    0.020239
C      -1.157952   -2.162290   -0.011497
N      -2.254556   -2.826122   -0.021411
N       0.111579   -2.790962   -0.042587
C       1.158363   -2.059425   -0.034003
O       2.394500   -2.589461   -0.023567
N       1.190397   -0.690150   -0.039793
H       0.759833    1.780725   -0.534952
H      -0.762276    1.860418    0.124233
H      -2.129063   -0.201904    0.022961
H      -2.031225   -3.822461   -0.055710
H       2.264238   -3.548041   -0.007366
H       2.047978   -0.225893    0.216366
