15

C       0.063910    1.603804   -0.322821
C      -0.062471    0.103858   -0.170933
C      -1.438934   -0.415046    0.222862
C      -1.821114    0.016205    1.627000
O      -2.859820    0.549663    1.920113
C       0.871091   -0.789684   -0.872252
O       1.020334   -0.534163    0.526857
H       1.095195    1.879275   -0.554454
H      -0.586788    1.967366   -1.125067
H      -0.228595    2.116666    0.599729
H      -2.211016   -0.074851   -0.473545
H      -1.417002   -1.512196    0.214695
H      -1.048658   -0.209943    2.394831
H       0.561894   -1.800799   -1.134747
H       1.646318   -0.364118   -1.508047
