17

O      -0.323652    1.554880    0.106994
C      -0.052038    0.184574   -0.098399
C      -1.327942   -0.654064   -0.025628
C      -1.211683   -2.213431    0.078157
C      -2.082436   -2.194904    1.377698
C      -1.987035   -0.685226    1.339500
N      -2.179872    0.279824    2.138522
O      -2.697932   -0.157557    3.369629
H      -0.804294    1.619073    0.944212
H       0.407219    0.095347   -1.089329
H       0.674485   -0.201301    0.637011
H      -2.018817   -0.331030   -0.812072
H      -1.617617   -2.777880   -0.762029
H      -0.186261   -2.543530    0.261961
H      -3.103284   -2.563301    1.235897
H      -1.669659   -2.672285    2.269908
H      -2.804577    0.668006    3.854517
