20

C      -0.022539    1.584623   -0.081405
C       0.015338    0.083584    0.053337
C       0.857505   -0.724911   -0.970414
C       1.585535   -1.472201    0.186827
C       0.684966   -0.746038    1.214781
O       1.290738   -0.119589    2.311508
C      -0.674539   -1.407287    1.397021
C      -1.706814   -0.382570    1.640543
N      -1.300182   -0.621603    0.245305
H       0.992747    1.992118   -0.110441
H      -0.528826    1.863321   -1.012981
H      -0.549471    2.064004    0.748058
H       0.242843   -1.349315   -1.620990
H       1.518856   -0.110451   -1.585117
H       1.540335   -2.565041    0.180508
H       2.627698   -1.161362    0.294746
H       1.705472   -0.794318    2.861477
H      -0.855955   -2.471871    1.516449
H      -2.715413   -0.727238    1.844957
H      -1.430392    0.542781    2.138809
