21

C      -0.059925    1.504374    0.050072
C      -0.024008   -0.004627   -0.005428
C       0.367786   -0.793535   -1.294572
C      -0.373841   -1.956974   -0.563419
O      -0.947582   -3.046485   -1.221066
C       0.537428   -2.223240    0.648892
C       0.810864   -0.747322    1.068127
C      -1.321803   -0.856576   -0.027786
O      -1.980056   -1.022168    1.203650
H       0.948262    1.926551   -0.030816
H      -0.663328    1.921840   -0.762880
H      -0.489100    1.848426    0.997810
H      -0.164652   -0.453343   -2.185817
H       1.433587   -0.915804   -1.506431
H      -0.259200   -3.698462   -1.389861
H       0.015721   -2.790666    1.422880
H       1.444552   -2.768218    0.365321
H       1.869115   -0.474956    1.009305
H       0.453793   -0.532348    2.077571
H      -2.009820   -0.517866   -0.814028
H      -2.677933   -1.674085    1.082025
