20

C      -0.065311    1.584529   -0.109974
C      -0.029270    0.060579   -0.034378
C      -1.393238   -0.555630   -0.346070
C       1.126387   -0.642913   -0.851962
C       1.685320   -1.210735    0.451884
N       2.016192   -0.091977    1.317991
C       0.597938   -0.519507    1.259189
C      -0.015226   -1.096757    2.460328
O       0.626863   -1.459659    3.425230
H       0.903940    2.006370    0.164674
H      -0.313094    1.914902   -1.124999
H      -0.823908    1.993712    0.567292
H      -1.688926   -0.315996   -1.373028
H      -1.377182   -1.646800   -0.248649
H      -2.171518   -0.167955    0.320556
H       0.747998   -1.407224   -1.533969
H       1.811791    0.019963   -1.385845
H       2.091871   -2.199104    0.631899
H       2.370097   -0.469688    2.199911
H      -1.118593   -1.206856    2.433134
