21

C       0.077790    1.550689    0.053144
C       0.029482    0.021439   -0.054671
C       0.656887   -0.525554   -1.321251
C       0.051279   -0.086618   -2.670700
O       0.624297   -1.014733   -3.614907
C       1.488851   -1.862337   -2.845583
C       2.665836   -1.006554   -2.360567
O       2.056812   -0.162666   -1.364022
C       0.712591   -2.050047   -1.537093
H       1.107181    1.907791   -0.029936
H      -0.510831    2.031132   -0.735343
H      -0.325663    1.882557    1.014254
H       0.555832   -0.422273    0.798173
H      -1.008475   -0.329252   -0.004087
H      -1.043879   -0.165139   -2.694307
H       0.344712    0.936547   -2.926248
H       1.745754   -2.738256   -3.440406
H       3.471997   -1.597683   -1.905832
H       3.078164   -0.399921   -3.174125
H       1.268044   -2.561545   -0.748158
H      -0.262138   -2.517415   -1.689719
