25

C       0.112734    1.532453    0.288566
C       0.015706    0.050454   -0.115016
C      -1.392865   -0.493857   -0.108933
C      -1.984633   -0.932027   -1.223726
C      -3.389635   -1.469832   -1.296736
C      -4.214230   -1.175663   -0.032643
C      -5.517423   -1.977952   -0.007532
C      -3.350547   -1.429822    1.210226
C      -2.110713   -0.526008    1.224386
H       1.150610    1.877997    0.250855
H      -0.478455    2.159527   -0.386765
H      -0.253813    1.699517    1.306183
H       0.449771   -0.080676   -1.112556
H       0.635542   -0.539902    0.575704
H      -1.426239   -0.912732   -2.158616
H      -3.899051   -1.056624   -2.177925
H      -3.357640   -2.557950   -1.468735
H      -4.468747   -0.105567   -0.044682
H      -5.313419   -3.054508    0.039610
H      -6.129366   -1.717434    0.862704
H      -6.117087   -1.793845   -0.905768
H      -3.938790   -1.275407    2.122493
H      -3.035727   -2.482570    1.214477
H      -1.413149   -0.855777    2.006545
H      -2.402237    0.495209    1.510520
