21

C       0.199576    1.552697    0.289595
C       0.152161    0.035866    0.203531
C       0.971657   -0.685169   -0.905521
C       1.315695   -1.795649    0.125808
C       2.715880   -2.372085    0.098616
O       2.882449   -3.342235    1.144741
C       3.700636   -3.045796    2.169279
O       3.871165   -3.778324    3.096950
C       0.923571   -0.807618    1.258925
H       1.234201    1.912299    0.332232
H      -0.278706    2.016507   -0.580396
H      -0.316142    1.916254    1.185373
H      -0.889678   -0.301258    0.160466
H       0.456124   -0.980066   -1.822580
H       1.860759   -0.103908   -1.178335
H       0.593945   -2.616218    0.066602
H       2.909376   -2.894391   -0.844423
H       3.466446   -1.576645    0.205754
H       4.196187   -2.061439    2.050842
H       1.798032   -0.262431    1.634631
H       0.367298   -1.201176    2.112236
