21

C       0.040751    1.434917   -0.204794
C      -0.060041   -0.034983    0.209191
C      -1.438119   -0.622639   -0.060781
O      -1.444628   -1.974102    0.361223
C      -2.670791   -2.613032    0.190581
C      -3.124443   -3.089453   -1.249850
C      -3.206382   -4.506337   -0.670554
O      -1.888184   -4.842131   -0.235654
C      -2.706662   -4.071695    0.647975
H       1.039656    1.831862   -0.002785
H      -0.156733    1.564206   -1.274789
H      -0.678937    2.054820    0.341512
H       0.683706   -0.634646   -0.327495
H       0.160959   -0.146723    1.276814
H      -2.213033   -0.052013    0.480976
H      -1.679932   -0.553617   -1.134537
H      -3.485800   -2.042118    0.664193
H      -4.078770   -2.661066   -1.563397
H      -2.378675   -2.978527   -2.039725
H      -3.874952   -5.319417   -0.926359
H      -2.868953   -4.465622    1.644506
