18

C       0.034450    1.360685    0.150497
O      -0.010893   -0.046283    0.059749
C      -1.324489   -0.550399   -0.014147
C      -1.213426   -2.062002   -0.073712
C      -0.783545   -2.763920    1.230544
O      -2.053561   -3.460857    1.327549
C      -2.519753   -2.892007    0.093947
C      -3.776660   -2.149310    0.245726
N      -4.764223   -1.557479    0.347139
H       1.086575    1.648907    0.205025
H      -0.422275    1.839074   -0.729415
H      -0.484266    1.727189    1.049550
H      -1.913748   -0.241643    0.865439
H      -1.848593   -0.164676   -0.904778
H      -0.634969   -2.352439   -0.951885
H       0.052808   -3.464660    1.144552
H      -0.617046   -2.099693    2.084937
H      -2.667968   -3.659140   -0.676380
