22

C      -0.576599    1.486609   -0.319304
C      -0.007664    0.070971   -0.219626
C      -1.090852   -0.984949   -0.461297
N       1.253186   -0.112265   -1.017194
C       2.071935   -0.503111    0.181272
C       2.494581   -1.974735    0.229890
C       3.261536    0.427062    0.420601
C       0.832989   -0.193773    1.045796
O       0.614343   -0.164650    2.221698
H       0.209350    2.233523   -0.184098
H      -1.026555    1.645201   -1.305246
H      -1.345415    1.645276    0.443653
H      -1.501454   -0.876736   -1.471866
H      -0.701487   -2.002236   -0.357578
H      -1.912006   -0.864015    0.251545
H       1.177206   -0.862402   -1.697247
H       3.225121   -2.181576   -0.560732
H       2.961689   -2.209408    1.191036
H       1.644112   -2.649757    0.094671
H       2.959241    1.474400    0.345931
H       3.688192    0.255743    1.414066
H       4.039972    0.246498   -0.328484
