18

C       0.269811    1.544165    0.111511
C      -0.274862    0.138095   -0.122935
N       0.500788   -0.529089   -1.166714
C       1.733596   -1.283398   -0.898799
C       1.997243   -1.759785    0.499147
C       1.062279   -2.623755    0.918959
C       0.076120   -2.872940   -0.173552
O      -0.850427   -3.647758   -0.160149
C       0.489214   -1.981741   -1.344131
H       1.288785    1.507673    0.511725
H       0.294840    2.110467   -0.823579
H      -0.354946    2.081958    0.830766
H      -0.304054   -0.413621    0.827652
H      -1.304695    0.187284   -0.493547
H       2.566833   -1.063315   -1.558857
H       2.829247   -1.393039    1.089958
H       0.973863   -3.076528    1.898402
H       0.305582   -2.345124   -2.350430
