14

O       0.222909    1.155393   -0.580028
C      -0.070809    0.087634    0.291390
C      -1.442534   -0.483566    0.080666
C      -2.210277   -0.662700   -1.042406
C      -3.433234   -1.288924   -0.607294
C      -3.309452   -1.439990    0.730935
O      -2.105431   -0.952231    1.157757
C      -1.824883   -0.310917   -2.358114
N      -1.479871   -0.030312   -3.428535
H       0.298579    0.818924   -1.480153
H       0.678479   -0.717825    0.221140
H      -0.017060    0.480627    1.311636
H      -4.269956   -1.571052   -1.224934
H      -3.946788   -1.845511    1.498131
