21

O      -0.038868    1.452320    0.056819
C       0.000656    0.041823   -0.106390
C      -1.411744   -0.496756    0.085112
C      -1.485854   -2.016703   -0.020050
C      -2.830869   -2.742934   -0.006059
C      -3.329918   -2.851985   -1.458571
C      -2.288202   -2.198078   -2.362518
C      -1.233425   -2.764552   -1.372391
C      -2.314488   -3.829136   -0.916033
H       0.848690    1.795544   -0.080987
H       0.372239   -0.230902   -1.107764
H       0.678150   -0.424926    0.628169
H      -1.768575   -0.184224    1.074741
H      -2.073776   -0.018242   -0.643629
H      -0.839778   -2.470607    0.742405
H      -3.521070   -2.847906    0.822185
H      -4.376297   -3.036166   -1.666910
H      -2.232808   -2.712953   -3.326016
H      -2.317847   -1.116182   -2.533400
H      -0.219719   -2.980260   -1.704816
H      -2.311022   -4.905672   -0.829930
