18

C      -0.026407    1.414295   -0.024118
C       1.347021    2.033368    0.026635
C       2.386844    1.206014    0.108690
C       2.104804   -0.269697    0.143663
C       1.000303   -0.706426   -0.892446
C       0.785947   -2.169940   -0.530637
C       0.716482   -2.125048    0.803262
C       0.897158   -0.639815    1.086403
N      -0.044800   -0.055558    0.024398
H      -0.645234    1.780944    0.807457
H      -0.554248    1.722194   -0.938163
H       1.447343    3.114519   -0.004536
H       3.413433    1.556407    0.150401
H       3.000646   -0.891351    0.211288
H       1.027712   -0.392528   -1.936223
H       0.703396   -3.000048   -1.216399
H       0.560317   -2.907588    1.530865
H       0.817114   -0.256530    2.103968
