14

C      -0.004238    1.531104    0.004048
C      -0.008368    0.027798    0.010835
C      -1.139738   -0.706463   -0.140450
F      -2.324530   -0.136482   -0.305443
C      -1.142888   -2.166421   -0.133736
O      -2.110277   -2.891426   -0.262621
N       0.146285   -2.671737    0.045224
N       1.298718   -2.003575    0.199714
C       1.212669   -0.706217    0.181583
H       0.634264    1.912263   -0.800134
H      -1.010244    1.926954   -0.135839
H       0.394715    1.920788    0.946736
H       0.226076   -3.680239    0.061082
H       2.149321   -0.173291    0.307192
