17

C       0.055759    1.545727   -0.322926
C       0.015239    0.069978   -0.015245
N       1.281217   -0.665354   -0.036542
C       0.560048   -0.544527    1.243526
C       1.195816    0.197162    2.344381
C       1.036390    0.103084    3.696375
C       1.909428    1.098452    4.203494
N       2.541888    1.737416    3.250799
O       2.088610    1.162397    2.063765
H       0.952247    2.008024    0.091515
H       0.056351    1.702336   -1.406809
H      -0.824692    2.049106    0.090276
H      -0.859361   -0.449452   -0.408396
H       1.164156   -1.600954   -0.415455
H       0.020884   -1.416058    1.608392
H       0.398786   -0.572610    4.241282
H       2.102327    1.370381    5.231855
