19

O       0.319186    1.273614    0.364479
C       0.039986   -0.073146    0.068027
C      -0.731380   -0.863278    1.115746
C      -1.428619   -0.351883   -0.119974
C       1.017932   -0.751664   -0.740640
C       1.876106   -1.295692   -1.393108
C       2.877995   -1.939370   -2.189699
C       4.279884   -2.150592   -1.634928
C       3.374487   -3.329902   -1.819128
H       1.174477    1.298296    0.808124
H      -0.536534   -1.925682    1.203299
H      -0.921164   -0.342017    2.047155
H      -2.079430    0.507748   -0.009381
H      -1.715370   -1.058784   -0.888619
H       2.824576   -1.731534   -3.254774
H       5.107956   -2.017962   -2.321940
H       4.466305   -1.802891   -0.626017
H       2.943832   -3.786209   -0.936015
H       3.573435   -4.016328   -2.634326
