21

C      -0.288018    1.519103   -0.113617
C       0.107917    0.048276    0.058512
C       0.777183   -0.497360   -1.203171
O      -0.138132   -0.378885   -2.282678
C       1.032148   -0.172739    1.267294
N       0.419876    0.192903    2.533296
C       0.262488   -0.728886    3.543325
N      -0.205882   -0.177147    4.734499
O       0.528007   -1.911422    3.431340
H       0.600464    2.151598   -0.239789
H      -0.917077    1.645099   -0.996967
H      -0.843510    1.884089    0.756080
H      -0.801753   -0.542969    0.224422
H       1.703000    0.068580   -1.405143
H       1.064157   -1.548593   -1.041800
H       0.292583   -0.701439   -3.079245
H       1.297847   -1.228814    1.357788
H       1.963899    0.394973    1.128428
H       0.403375    1.167732    2.783034
H      -0.837484    0.607198    4.662347
H      -0.522020   -0.888021    5.377153
