17

O       0.095172    1.433129   -0.481353
C       0.067421    0.029313   -0.598605
C      -1.029065   -0.558653    0.293806
O      -2.284523    0.085085   -0.001953
C      -1.147656   -2.043201    0.194406
C      -0.390596   -3.030281   -0.389192
N      -0.945396   -4.270556   -0.174306
C      -2.031563   -4.044203    0.528518
N      -2.199948   -2.717674    0.784424
H      -0.829453    1.713057   -0.493622
H      -0.107130   -0.292663   -1.640208
H       1.048759   -0.348814   -0.294607
H      -0.823472   -0.249406    1.326618
H      -2.575387   -0.246582   -0.861209
H       0.527875   -2.919255   -0.945496
H      -2.730685   -4.791595    0.873261
H      -2.967011   -2.277867    1.266368
