17

C       0.018706    1.790638   -0.084405
C      -0.046017    0.263066    0.022842
N      -1.415668   -0.220615    0.054771
C      -1.995017   -0.734901    1.174995
O      -1.457184   -0.826272    2.257310
C       0.670896   -0.456991   -1.147559
O       0.025665   -0.221810   -2.391051
C       2.100466   -0.105558   -1.208080
N       3.212694    0.202545   -1.265675
H       1.054810    2.141022   -0.100712
H      -0.486234    2.148560   -0.988575
H      -0.483570    2.239651    0.775078
H       0.412847   -0.059364    0.961430
H      -1.931695   -0.210452   -0.812036
H      -3.034849   -1.064028    0.984121
H       0.591666   -1.535638   -0.978428
H       0.262297    0.660595   -2.698638
