19

O       0.194882    1.390012    0.097602
C       0.030509   -0.005478   -0.027131
C      -0.924167   -0.463330   -1.123604
C      -1.358702   -0.459645    0.322047
C      -1.639331   -1.764136    1.039470
O      -0.892864   -2.854736    0.537943
C       0.381833   -3.030427    1.119670
C       1.424650   -2.001585    0.777826
C       1.265475   -0.764969    0.305447
H       0.725241    1.690961   -0.648690
H      -1.320242    0.305283   -1.778659
H      -0.731163   -1.428157   -1.577582
H      -2.014327    0.354444    0.618819
H      -1.476848   -1.651730    2.123421
H      -2.693587   -2.027637    0.890303
H       0.287826   -3.102663    2.219441
H       0.726656   -4.013433    0.776106
H       2.442875   -2.343195    0.958192
H       2.167533   -0.179029    0.135353
