18

C      -0.094461    1.540106   -0.018107
C      -0.016075    0.010439    0.036712
C       0.765316   -0.449007    1.275610
O      -1.322955   -0.565118    0.037968
C       0.644416   -0.573356   -1.255768
N       0.641569   -2.030066   -1.365037
C      -0.008815   -0.019951   -2.458048
N      -0.509268    0.428427   -3.397508
H       0.901499    1.987064   -0.104713
H      -0.698310    1.867676   -0.866757
H      -0.547801    1.927003    0.901697
H       0.281081   -0.071541    2.182353
H       0.790349   -1.539353    1.341479
H       1.792806   -0.070282    1.267596
H      -1.827030   -0.177739    0.760490
H       1.686721   -0.233543   -1.278475
H       1.276135   -2.429482   -0.682403
H      -0.291776   -2.368940   -1.148872
