19

O      -0.039474    1.397601   -0.010071
C      -0.000360   -0.016901    0.006900
C       0.590633   -0.599519    1.326048
O      -0.201811   -1.738269    1.673170
C      -1.057998   -2.003447    0.545465
C      -1.418192   -0.598901    0.054057
C      -0.288308   -2.744725   -0.534806
C       0.540321   -2.078061   -1.338600
C       0.724726   -0.582640   -1.229798
H       0.859881    1.723084   -0.125818
H       1.644736   -0.889317    1.215490
H       0.511553    0.146666    2.124767
H      -1.903124   -2.585676    0.917106
H      -2.020989   -0.066235    0.794323
H      -1.923386   -0.580836   -0.913899
H      -0.393552   -3.822933   -0.604527
H       1.119253   -2.597471   -2.098133
H       0.343705   -0.078499   -2.129198
H       1.797622   -0.342279   -1.176683
