16

N      -0.118900    1.572248    0.143895
C      -0.102643    0.120591    0.004601
C       0.598700   -0.485740    1.232502
O       1.623430   -0.107457    1.720037
O      -0.118696   -1.527921    1.728076
C      -1.362852   -1.625336    1.050992
C      -2.307734   -0.462771    1.224049
C      -1.449804   -0.580922   -0.016595
O      -2.021841   -0.900502   -1.245279
H       0.771498    1.860541    0.542882
H      -0.190414    2.013838   -0.766655
H       0.451412   -0.238565   -0.879864
H      -1.705028   -2.644502    0.934409
H      -3.362169   -0.682356    1.097856
H      -2.067129    0.303844    1.952968
H      -2.557177   -0.151300   -1.529026
