18

C      -0.019090    1.419494   -0.070042
N      -0.014482   -0.011630    0.089793
C      -1.145751   -0.921958   -0.008948
C      -0.821753   -2.174944    0.860939
C      -1.578664   -3.066923   -0.149244
C      -0.799506   -2.062558   -1.026851
C       0.447157   -2.206011   -0.070536
C       1.096320   -0.823187    0.004251
O       2.261028   -0.493770   -0.025742
H       1.022411    1.748977   -0.044827
H      -0.461675    1.730224   -1.026185
H      -0.565666    1.915227    0.740677
H      -2.127409   -0.450229    0.012570
H      -0.819836   -2.226623    1.951009
H      -1.259419   -4.109800   -0.206685
H      -2.670306   -2.988548   -0.157581
H      -0.772188   -1.989480   -2.115547
H       1.095010   -3.078601   -0.115260
