21

C       0.033501    1.499107    0.338056
C       0.022537    0.024756   -0.090643
C      -1.357851   -0.548438   -0.195472
O      -2.068278   -0.820693    1.027082
C      -1.897724   -1.891609    0.084425
C      -2.996755   -1.746059   -0.972200
C      -2.438647   -0.310882   -1.282050
C      -3.381016    0.861060   -1.087595
O      -4.422698    0.736466   -2.048752
H       1.058645    1.868176    0.435940
H      -0.479797    2.131905   -0.393155
H      -0.467622    1.623089    1.302470
H       0.525722   -0.087129   -1.059304
H       0.586028   -0.574514    0.633466
H      -1.402268   -2.785702    0.447537
H      -2.888140   -2.431186   -1.815661
H      -4.019802   -1.795218   -0.592695
H      -1.996869   -0.273416   -2.282618
H      -3.773412    0.836348   -0.061502
H      -2.836202    1.810798   -1.217112
H      -5.082062    1.411507   -1.864070
