21

O       0.046703    1.357147   -0.016971
C       0.030905   -0.048170   -0.039933
C      -0.541161   -0.739331   -1.256662
C      -1.344404   -0.646417    0.035309
C      -1.588998   -1.823327    0.916067
C      -1.142519   -1.871154    2.173911
C      -0.370568   -0.735462    2.809824
C       1.062885   -0.538487    2.251764
C       1.157598   -0.718978    0.725824
H       0.828327    1.650250   -0.499221
H      -0.870428   -0.112191   -2.077779
H      -0.128188   -1.700431   -1.546844
H      -2.148815    0.085961   -0.010982
H      -2.159955   -2.653484    0.504083
H      -1.338873   -2.755010    2.776452
H      -0.924437    0.196029    2.646713
H      -0.315579   -0.875319    3.893821
H       1.399317    0.465574    2.531456
H       1.753690   -1.243879    2.727674
H       1.144774   -1.786256    0.488441
H       2.122062   -0.337550    0.363399
