20

C       0.318724    1.400028   -0.205901
C      -0.213876    0.005662    0.148102
C       0.577020   -0.640705    1.269008
C       0.752402   -2.121458    1.471179
C       0.473755   -3.059558    0.295822
N       1.423721   -2.627330   -0.714261
C       2.328449   -1.672082   -0.316765
O       3.249230   -1.249081   -0.983047
C       1.949077   -1.272506    1.086080
H       1.351950    1.339542   -0.561201
H      -0.284694    1.865199   -0.991392
H       0.301653    2.063719    0.665710
H      -1.264690    0.075552    0.457992
H      -0.198045   -0.625083   -0.745938
H       0.505474   -0.090754    2.205830
H       0.645279   -2.531486    2.468013
H       0.646857   -4.103387    0.589430
H      -0.560630   -2.983340   -0.064535
H       1.471039   -3.019198   -1.640834
H       2.757088   -1.014674    1.758065
