20

C       0.493537    1.326237   -0.080358
C      -0.075688   -0.100092   -0.019214
C      -1.605295   -0.069028   -0.018758
C       0.492243   -0.954676   -1.194334
N       1.758533   -1.456011   -0.671820
C       1.864376   -1.363370    0.677102
O       2.827392   -1.595779    1.381994
C       0.513010   -0.862982    1.193478
O       0.667171   -0.114872    2.367815
H       1.584898    1.321798   -0.165250
H       0.087318    1.860756   -0.945282
H       0.235875    1.877694    0.825797
H      -1.992376    0.401413   -0.929633
H      -2.025148   -1.078616    0.044329
H      -1.976246    0.504440    0.836259
H      -0.188198   -1.778009   -1.451889
H       0.649388   -0.353241   -2.095332
H       2.512803   -1.798749   -1.244942
H      -0.112101   -1.754891    1.383551
H       1.532659   -0.374629    2.720711
