18

C      -0.021133    1.488876    0.041398
C       0.017375   -0.027118    0.018618
O      -1.340181   -0.491655    0.019671
C      -1.506901   -1.824661    0.000839
C      -2.723772   -2.479982   -0.001231
C      -4.127558   -1.984614    0.014887
N      -2.338823   -3.784951   -0.023274
N      -1.006802   -3.932174   -0.033574
N      -0.494349   -2.725590   -0.018947
H       0.997791    1.887022    0.041340
H      -0.544579    1.877999   -0.836645
H      -0.534172    1.851624    0.936706
H       0.530524   -0.406556   -0.872644
H       0.540885   -0.432813    0.892117
H      -4.687643   -2.297643   -0.873967
H      -4.679383   -2.332223    0.895990
H      -4.117377   -0.892827    0.036086
H      -2.920508   -4.607829   -0.031886
