21

O      -0.048897    1.404715    0.003747
C       0.008298   -0.013864    0.009422
C       0.669212   -0.597087    1.297791
C      -0.178100   -1.841383    1.688246
C      -1.111819   -2.044485    0.463358
C      -1.413900   -0.589414    0.065292
C      -0.348695   -2.715176   -0.661244
C       0.481827   -2.024574   -1.442823
C       0.698957   -0.541610   -1.264745
H       0.850705    1.738243   -0.082486
H       1.720410   -0.851011    1.130212
H       0.635429    0.168107    2.077861
H       0.432388   -2.723612    1.897482
H      -0.776732   -1.637608    2.582488
H      -2.007139   -2.617561    0.717869
H      -1.990317   -0.072872    0.840232
H      -1.945203   -0.497353   -0.885631
H      -0.469991   -3.786819   -0.795921
H       1.031992   -2.517659   -2.240434
H       0.314209    0.011938   -2.132937
H       1.776810   -0.322252   -1.218161
