16

C       0.026322    1.434412    0.030472
N       0.040119   -0.015110    0.019369
C       0.100771   -0.785774   -1.098029
O       0.144161   -0.145630   -2.291756
C       0.105274   -2.122409   -0.751266
C       0.044694   -2.162697    0.663221
C       0.005354   -0.862444    1.134776
C      -0.059867   -0.368752    2.447979
C      -0.116173    0.060109    3.575289
H       0.958721    1.838322   -0.375880
H      -0.806681    1.816582   -0.566143
H      -0.087330    1.765522    1.062741
H       0.176410   -0.806766   -2.989776
H       0.146408   -2.958267   -1.432129
H       0.029465   -3.043444    1.285386
H      -0.165190    0.424023    4.571055
