20

C      -0.011362    1.692525    0.156664
C      -0.059066    0.180562    0.035412
C      -1.372288   -0.407819   -0.457014
C      -1.729644   -0.007784   -1.887366
O      -2.903502   -0.722803   -2.238496
C       1.209069   -0.542299   -0.321537
C       0.666960   -0.649985    1.098633
C       1.367128   -0.016506    2.178978
N       1.926686    0.498955    3.051361
H       0.920060    2.029465    0.618191
H      -0.087196    2.166422   -0.827123
H      -0.839211    2.060715    0.772291
H      -1.329559   -1.502602   -0.423500
H      -2.190439   -0.104618    0.207350
H      -1.893065    1.078528   -1.951439
H      -0.892112   -0.253448   -2.560587
H      -3.173691   -0.447078   -3.119131
H       1.152619   -1.439307   -0.928611
H       2.112653    0.040869   -0.457729
H       0.204415   -1.592256    1.373581
