19

C       0.871355   -0.852210   -1.271471
C       0.131906   -0.197808   -0.099308
C      -1.389332   -0.489568   -0.035189
C      -2.157687   -0.036614   -1.296238
C      -1.949593    1.374813   -1.605390
N      -1.776560    2.494559   -1.834298
C      -1.639634   -1.989729    0.162696
N      -1.551030   -2.420486    1.452069
O      -1.874537   -2.743415   -0.763991
H       1.945853   -0.665655   -1.188411
H       0.713283   -1.933979   -1.297950
H       0.545426   -0.443724   -2.232768
H       0.578235   -0.529553    0.845547
H       0.265156    0.888745   -0.138476
H      -1.792930    0.053173    0.827976
H      -1.856657   -0.653070   -2.147137
H      -3.229943   -0.211195   -1.160537
H      -1.348509   -1.802124    2.217470
H      -1.643002   -3.406469    1.634858
