18

C      -0.049594    1.452634    0.134504
N      -0.008548   -0.008828    0.033264
C      -1.231402   -0.687949   -0.018035
N      -2.306621   -0.004196    0.035516
C      -1.148438   -2.202165   -0.164583
N       0.035179   -2.808051    0.427187
C       1.231156   -2.161249   -0.091305
C       1.234737   -0.633057   -0.053162
O       2.272636   -0.006281   -0.096050
H       0.977829    1.807260    0.161873
H      -0.579265    1.871073   -0.724122
H      -0.589840    1.746315    1.036655
H      -3.118258   -0.619932   -0.001507
H      -2.049779   -2.641884    0.270789
H      -1.157793   -2.446730   -1.236333
H       0.001693   -2.695866    1.436140
H       2.116464   -2.492669    0.455210
H       1.376145   -2.462866   -1.138223
