20

C      -0.050945    1.568432   -0.175857
C       0.017994    0.060437   -0.049608
C       1.114434   -0.682747   -0.894050
C       1.276306   -1.600081    0.317974
N       2.713940   -2.067521    0.630889
H       3.340412   -1.260599    0.691582
H       2.749628   -2.566948    1.522688
H       3.063788   -2.688612   -0.102499
C       0.702231   -0.523027    1.238391
C      -1.388880   -0.664617   -0.267155
O      -2.338134    0.085302   -0.507297
O      -1.332638   -1.917236   -0.161878
H       0.928451    2.043671   -0.022349
H      -0.429768    1.843401   -1.163346
H      -0.760686    1.971768    0.550668
H       0.811715   -1.150350   -1.831255
H       1.998831   -0.047394   -1.051623
H       0.625019   -2.470869    0.257216
H       1.482445    0.152738    1.619537
H       0.060845   -0.859383    2.053339
