19

C       0.161927    1.164940    0.765493
C      -0.024298   -0.066080   -0.092113
C       0.749073   -0.263284   -1.327218
O       1.086361   -0.970981   -0.129320
C      -1.353283   -0.740062    0.027655
C      -1.876656   -1.693970    1.140012
C      -2.871176   -1.687175   -0.041422
C      -2.783326   -0.145747   -0.113537
O      -1.723314   -1.770597   -0.976130
H       1.178314    1.548385    0.651269
H      -0.545715    1.951476    0.484183
H       0.003548    0.928784    1.823241
H       0.329721   -0.874021   -2.122816
H       1.461940    0.500996   -1.635433
H      -1.298483   -2.610065    1.258368
H      -2.197717   -1.255630    2.088216
H      -3.719456   -2.341523   -0.238053
H      -3.186186    0.435415    0.719875
H      -3.008771    0.286577   -1.089272
