15

N       0.075368    1.382923    0.146916
C      -0.040226    0.006050    0.036172
C      -1.202285   -0.685678    0.026932
C      -1.207556   -2.131413   -0.004561
N      -2.292200   -2.812842   -0.009299
N       0.085132   -2.702659   -0.046166
C       1.294571   -2.045639   -0.019167
O       2.370882   -2.603275    0.000364
N       1.173017   -0.660568   -0.016628
H       0.783360    1.798096   -0.445352
H      -0.805567    1.868992    0.058587
H      -2.158419   -0.183399    0.026289
H      -2.106917   -3.815906   -0.048294
H       0.166279   -3.708875   -0.053968
H       2.033363   -0.166041    0.160804
