16

C       0.008868    1.458460    0.066883
C       0.001195   -0.055014    0.007034
O       0.720934   -0.531007    1.170025
C       0.840348   -1.831881    1.320739
N       1.455448   -2.419545    2.303854
C       1.278640   -3.741014    1.967511
N       1.834651   -4.738301    2.723343
N       0.595282   -3.976856    0.867077
O       0.300573   -2.648247    0.416010
H       1.032327    1.842556    0.052786
H      -0.525819    1.862853   -0.797189
H      -0.482220    1.814045    0.976627
H      -1.015152   -0.460644    0.031048
H       0.497569   -0.431564   -0.892852
H       1.979406   -4.489757    3.689853
H       1.433614   -5.653562    2.584487
