18

C       0.186046    1.241469   -0.155678
N       0.343917   -0.205591   -0.092783
C       0.545956   -0.765647    1.013023
O       0.687784   -0.263948    2.295753
C       0.995774   -1.605160    2.815769
C       0.828043   -2.162111    1.405796
C       0.185129   -3.406274    0.835429
C       1.617002   -3.085211    0.505358
O       1.997633   -2.634494   -0.747397
H       0.935659    1.656376   -0.837782
H      -0.797469    1.480104   -0.574806
H       0.283149    1.737141    0.816634
H       2.001277   -1.629311    3.243487
H       0.251704   -1.915215    3.554106
H      -0.009079   -4.223509    1.523218
H      -0.565785   -3.255675    0.066224
H       2.386042   -3.704841    0.958151
H       1.496075   -1.824211   -0.943892
