23

C      -0.109959    1.526122   -0.069993
C       0.010815    0.007915    0.002612
C       1.176658   -0.596578   -0.843112
C       2.080313   -0.442693    0.413207
C       0.769775   -0.587298    1.252226
C       0.665919    0.083608    2.609942
C       0.439126   -2.071896    1.286100
C       0.508035   -2.779570    0.158512
C       0.908285   -2.084898   -1.123789
H       0.846954    2.033928    0.087384
H      -0.481700    1.828951   -1.055633
H      -0.813807    1.906902    0.677938
H      -0.971877   -0.442951   -0.173493
H       1.467702   -0.060035   -1.750739
H       2.862647   -1.187903    0.579907
H       2.512245    0.558407    0.487898
H       0.903670    1.150024    2.553227
H      -0.344207   -0.014184    3.025850
H       1.360950   -0.374046    3.323959
H       0.155059   -2.522923    2.233462
H       0.285291   -3.842538    0.132164
H       0.116059   -2.193283   -1.878696
H       1.799763   -2.562726   -1.555194
