17

O      -0.052512    1.356190   -0.086967
C       0.022047   -0.025210   -0.023435
C      -1.185603   -0.913816   -0.050641
C      -0.953082   -1.982102   -1.106523
O       0.327719   -1.708123   -1.685979
C       1.060804   -0.858846   -0.812226
C       1.740368   -1.661001    0.304859
O       0.702217   -1.937199    1.258828
C      -0.245810   -0.904639    1.157959
H       0.621335    1.726563    0.493684
H      -2.173574   -0.491430    0.090942
H      -0.962770   -2.990768   -0.672756
H      -1.705262   -1.935019   -1.901011
H       1.750640   -0.256005   -1.406554
H       2.151002   -2.611331   -0.042691
H       2.538772   -1.066632    0.777006
H      -0.615194   -0.534102    2.108301
