19

C      -0.209693    1.536650    0.308154
N      -0.001693    0.099410    0.190562
C       1.316935   -0.363909   -0.221937
C       0.826861   -0.608157    1.165385
C       1.482692    0.053865    2.364898
C       0.570702    0.107362    3.570424
C       0.628686    1.195859    4.553026
O      -0.427088    1.132054    3.591924
H       0.705865    2.113687    0.515331
H      -0.624069    1.902353   -0.636966
H      -0.923853    1.736526    1.110413
H       1.345078   -1.164355   -0.957538
H       2.101706    0.384676   -0.339235
H       0.440294   -1.603425    1.390500
H       2.375514   -0.526699    2.635741
H       1.823817    1.064855    2.124245
H       0.203952   -0.862185    3.914731
H       0.333215    1.016400    5.585803
H       1.341383    2.007627    4.410383
