19

C       0.682129    1.114094    0.292316
O       0.696552   -0.276126   -0.000062
C       0.402560   -0.573228   -1.338337
O       1.418103   -0.206326   -2.235447
C       2.699798   -0.821069   -2.028904
C       2.626056   -2.179450   -1.319991
C       1.354195   -2.928451   -1.733445
C       0.127781   -2.090283   -1.409646
O      -0.981153   -2.534510   -1.255649
H       1.410590    1.661455   -0.317345
H      -0.315659    1.541694    0.120783
H       0.939478    1.218583    1.348078
H      -0.491524   -0.032723   -1.676618
H       3.120048   -0.936594   -3.033931
H       3.349329   -0.133609   -1.472949
H       3.520861   -2.760220   -1.563497
H       2.616920   -2.032020   -0.236692
H       1.348184   -3.110733   -2.817244
H       1.255040   -3.902276   -1.247081
