18

C       0.056654    1.564881   -0.024916
C       0.016182    0.033259    0.058516
N       0.678654   -0.530000    1.228993
C      -1.453074   -0.534880    0.016685
C      -2.254744   -0.043523   -1.217100
C      -1.381541   -2.007388   -0.031140
N      -1.349032   -3.155025   -0.152509
C      -2.153659   -0.125796    1.248722
N      -2.680587    0.253587    2.204138
H       1.096640    1.896220    0.046747
H      -0.348756    1.950040   -0.964777
H      -0.498824    2.018148    0.803309
H       0.506569   -0.389169   -0.825615
H       1.685129   -0.442765    1.144334
H       0.403070   -0.032028    2.071135
H      -1.697170   -0.274006   -2.128230
H      -3.222520   -0.545657   -1.263852
H      -2.423518    1.032319   -1.158172
