17

C       0.013320    1.586124    0.007662
C      -0.054248    0.048820    0.018291
C       0.706228   -0.509306    1.141187
C       1.325926   -0.956156    2.069263
C      -1.472441   -0.513183    0.021115
C      -1.666880   -2.002627   -0.056632
N      -2.426329    0.332367    0.068957
O      -3.679103   -0.300228    0.043071
H       1.056750    1.908154   -0.030787
H      -0.518861    1.982569   -0.859326
H      -0.449135    1.998123    0.906257
H       0.418952   -0.320095   -0.905791
H       1.876376   -1.350672    2.887163
H      -2.289342   -2.347829    0.774100
H      -2.199710   -2.265688   -0.976619
H      -0.712459   -2.529811   -0.027000
H      -4.283420    0.447755    0.094648
