19

O       0.545821    0.880034   -0.833763
C       0.169005   -0.191928   -0.016895
C       0.204009   -0.045662    1.531531
C      -1.191736   -0.717824    1.637138
C      -2.362214    0.275524    1.790152
C      -2.348407    0.533256    0.256218
C      -1.331165   -0.640353    0.052553
C      -1.748706   -1.734550   -0.779750
C      -2.086608   -2.660975   -1.470814
H       0.102931    1.675482   -0.520011
H       0.773763   -1.040505   -0.346201
H       1.028918   -0.563657    2.024439
H       0.209038    0.996599    1.870391
H      -1.237165   -1.665451    2.171906
H      -3.285627   -0.213096    2.110931
H      -2.182778    1.135373    2.442502
H      -3.301986    0.379892   -0.249252
H      -1.962916    1.509661   -0.054225
H      -2.383679   -3.475081   -2.084027
