20

C      -0.195300    1.280491   -0.042471
O       0.035816   -0.106800   -0.003320
C       0.658785   -0.588515   -1.174952
C       0.861316   -2.087062   -1.006300
C       1.497634   -2.725842   -2.227359
O       1.768978   -2.115350   -3.238746
N       1.829804   -4.071920   -2.060836
C       0.874136   -5.154319   -1.900618
C       1.725216   -5.033986   -3.130780
H       0.742873    1.849208   -0.142766
H      -0.855040    1.562263   -0.878656
H      -0.678102    1.559445    0.897423
H       0.040840   -0.384066   -2.062830
H       1.625912   -0.088934   -1.341135
H       1.483930   -2.292084   -0.128611
H      -0.104146   -2.568009   -0.805222
H       1.109617   -5.891884   -1.138327
H      -0.183072   -4.918186   -1.999169
H       1.251620   -4.697684   -4.049094
H       2.578149   -5.693228   -3.262441
