17

C       0.075607    1.475030   -0.049510
C       0.064475   -0.028458   -0.014229
O       1.078533   -0.696303   -0.024088
C      -1.280411   -0.780586    0.012619
O      -1.059672   -2.128789   -0.277874
C      -1.967963   -0.661437    1.415556
O      -2.264042    0.688408    1.765322
C      -3.167954   -1.492290    1.459741
C      -4.202181   -2.103868    1.481460
H       1.102638    1.840826   -0.023086
H      -0.414189    1.821265   -0.967458
H      -0.508050    1.868409    0.786763
H      -1.960270   -0.334669   -0.728711
H      -0.094071   -2.237594   -0.226895
H      -1.245982   -1.019342    2.159650
H      -3.140489    0.892000    1.421038
H      -5.101437   -2.668723    1.507677
