18

C      -0.458477    1.204109   -0.405843
O       0.654058    1.472304    0.453016
C       0.310592    0.109342    0.200998
C      -0.216103   -0.665241    1.358085
C      -0.836855   -2.068869    1.175347
C      -1.693489   -1.668454    2.361564
C      -0.866275   -0.841465    3.293567
C       0.527761   -0.706283    2.713956
N      -1.517184   -0.197247    2.101903
H      -1.432279    1.446815    0.012406
H      -0.307741    1.451732   -1.455591
H       1.030708   -0.429070   -0.419852
H      -1.434778   -2.123932    0.261549
H      -0.180120   -2.942226    1.246808
H      -2.658440   -2.069423    2.650288
H      -1.197224   -0.607581    4.299039
H       1.267141   -1.496357    2.881424
H       0.955629    0.272579    2.940478
