18

N      -0.208119   -1.145947   -0.383296
C      -0.109405   -0.010659   -0.189430
C       0.006689    1.430252    0.059544
C      -0.690886    1.831861    1.386074
O       0.142877    1.641497    2.504376
C       1.205628    2.582663    2.528088
C       2.079928    2.481775    1.294908
C       2.517084    1.126635    0.816910
C       1.473624    1.890650    0.037517
H      -0.530779    1.933887   -0.752443
H      -0.988332    2.889695    1.308200
H      -1.587521    1.229595    1.547845
H       0.793825    3.602470    2.614338
H       1.777746    2.370312    3.436500
H       2.768221    3.311412    1.163272
H       3.500892    1.020267    0.374920
H       2.177387    0.264056    1.380620
H       1.790925    2.309536   -0.910645
