15

N      -0.022105    1.340450   -0.123904
C       0.066566    0.006354    0.086300
O       1.093902   -0.592510    0.344288
C      -1.278558   -0.728801    0.005406
O      -2.313841    0.075596   -0.514398
C      -1.136068   -2.169746   -0.581839
N      -1.432656   -2.673636    0.767639
C      -1.668004   -1.460439    1.334089
O      -2.101930   -1.081305    2.389340
H       0.821670    1.888417   -0.122891
H      -0.891314    1.734501   -0.441218
H      -2.955136    0.214124    0.193577
H      -1.906454   -2.400202   -1.322246
H      -0.136904   -2.419069   -0.940581
H      -1.525272   -3.608345    1.136413
