17

C      -0.072050    1.663709    0.203402
C      -0.060431    0.137055    0.013414
C       0.779527   -0.575046    1.099942
C       2.179647   -0.172885    1.098867
C       3.334100    0.162857    1.076889
C      -1.498083   -0.386286    0.085139
N      -2.107198   -0.579066   -1.119992
O      -2.063691   -0.593030    1.142506
H       0.948811    2.053514    0.201878
H      -0.633311    2.157262   -0.595808
H      -0.542624    1.920697    1.157324
H       0.370065   -0.096035   -0.967830
H       0.318076   -0.374029    2.072821
H       0.712693   -1.660270    0.955541
H       4.355774    0.451608    1.074949
H      -1.649680   -0.385937   -1.992922
H      -3.075178   -0.856859   -1.128363
