25

C       0.115575    1.567857   -0.057010
C       0.049422    0.046654    0.099766
C      -1.360126   -0.515919   -0.104871
C      -1.442015   -2.034238    0.101953
O      -0.975492   -2.418992    1.390366
C      -2.867168   -2.577977   -0.113685
C      -2.896763   -4.105501   -0.169872
O      -3.621124   -2.069715    0.987985
C      -5.020703   -2.100065    0.834984
H       1.133239    1.941076    0.095833
H      -0.206522    1.881277   -1.056812
H      -0.534678    2.069131    0.668944
H       0.735613   -0.425903   -0.616345
H       0.401619   -0.245749    1.094406
H      -2.062906   -0.033594    0.586323
H      -1.710966   -0.279556   -1.119458
H      -0.773402   -2.530120   -0.613542
H      -1.686498   -2.186439    2.001440
H      -3.272414   -2.161337   -1.050259
H      -3.918308   -4.490272   -0.233577
H      -2.354366   -4.459976   -1.052313
H      -2.415823   -4.517936    0.720476
H      -5.338976   -1.561740   -0.070968
H      -5.418824   -3.123308    0.786479
H      -5.450951   -1.602939    1.708183
