14

O      -0.568938    0.341096   -0.096375
C      -0.066471    1.420335    0.073425
C       1.372871    1.765871   -0.234886
C       1.479629    3.002385   -1.132092
C       2.883474    3.560349   -1.203216
O       3.807876    3.197023   -0.515239
C       3.133255    4.682732   -2.222240
O       2.285132    5.103825   -2.962711
H      -0.658411    2.269276    0.492690
H       1.882617    1.977250    0.714849
H       1.860547    0.897630   -0.684309
H       1.132382    2.806339   -2.153147
H       0.830790    3.815570   -0.772886
H       4.177074    5.059444   -2.200475
