17

O       0.003087    1.194696   -0.061743
N       0.010415   -0.199784   -0.201215
C      -1.131026   -0.698598    0.050711
C      -2.417379   -0.007699    0.428592
C      -3.470721   -1.101086    0.157715
N      -2.789264   -2.399664    0.320943
C      -1.370603   -2.208350   -0.021682
C      -1.111041   -2.747885   -1.428502
O      -0.133547   -3.367272   -1.748415
H       0.908442    1.428170   -0.295272
H      -2.386760    0.266658    1.490857
H      -2.562825    0.914958   -0.138226
H      -4.339497   -1.045851    0.817287
H      -3.840204   -1.015052   -0.871175
H      -2.863761   -2.712919    1.280700
H      -0.709432   -2.752539    0.657901
H      -1.934049   -2.530390   -2.146021
