11

O      -0.279668    0.032752    0.002314
C      -0.080005    1.223643    0.008282
N       1.161873    1.813799    0.001095
C       2.364903    1.129565   -0.013813
N       3.503486    1.773748   -0.018613
O       4.464895    0.798152   -0.033761
N       3.912671   -0.447371   -0.038308
C       2.621066   -0.274141   -0.026179
H      -0.883360    1.981580    0.020764
H       1.222218    2.821869    0.007628
H       1.921743   -1.091270   -0.026257
