15

O      -0.020950   -0.081854    0.111033
C      -0.061981    1.122169    0.022412
N      -1.206477    1.854571   -0.046689
C      -1.156775    3.276817   -0.150247
C      -0.098882    4.063343    0.574153
C      -0.078083    3.951483   -0.952626
C       1.241038    3.131366   -0.850511
C       1.220877    3.239699    0.628417
N       1.130524    1.922276   -0.019875
H      -2.084156    1.361838   -0.022787
H      -2.137523    3.736300   -0.197263
H      -0.308224    4.918694    1.202326
H      -0.268647    4.705745   -1.704174
H       2.057768    3.179525   -1.559140
H       2.018193    3.392210    1.344344
