16

C      -0.638873    0.663857    0.167105
O       0.734156    0.501533   -0.158908
C       1.035249   -0.334794   -1.190365
C       0.159180   -0.805814   -2.313913
C       0.872464   -1.850197   -1.465079
O       2.232886   -1.971492   -1.875491
C       2.496121   -0.581113   -1.533138
C       0.230459   -2.920888   -0.784362
N      -0.313806   -3.769728   -0.214382
H      -1.199092    1.115117   -0.660994
H      -1.101095   -0.292956    0.441303
H      -0.668699    1.333423    1.027547
H      -0.908073   -0.744842   -2.129361
H       0.455602   -0.698003   -3.355083
H       2.920083   -0.018671   -2.370679
H       3.144078   -0.515700   -0.654166
