16

N      -0.443000   -1.127877   -0.503906
C      -0.249479   -0.014587   -0.260656
C      -0.015768    1.401868    0.021400
N      -0.158293    1.816343    1.444762
C       1.116089    2.583934    1.385573
C       2.354735    1.835915    1.921779
C       2.250021    0.389334    1.694498
N       2.633263    1.227105    0.535533
C       1.438383    1.984897    0.012235
H      -0.636353    1.984266   -0.672615
H      -0.990475    2.358794    1.640185
H       1.060057    3.655303    1.578532
H       3.151551    2.295791    2.497225
H       3.082856   -0.225120    2.021487
H       1.282379   -0.096606    1.738910
H       1.715671    2.562564   -0.867045
