20

C       0.059474    1.526434   -0.216295
C       0.071624    0.022643   -0.018866
O       0.684352   -0.562846   -1.180393
C       0.779954   -1.910004   -1.212259
N       0.360571   -2.618515   -0.246481
C       1.481582   -2.326379   -2.476419
O       1.428586   -1.404941   -3.523471
C       2.753072   -3.152095   -2.324296
C       1.499618   -3.760790   -2.904752
H       1.075658    1.916310   -0.326070
H      -0.513894    1.800364   -1.106655
H      -0.401108    2.009279    0.650615
H       0.641056   -0.274184    0.867588
H      -0.936616   -0.388241    0.091961
H       0.489677   -3.610388   -0.430506
H       1.480942   -0.530343   -3.120387
H       3.556612   -2.907408   -3.009160
H       3.057211   -3.444016   -1.325260
H       0.948441   -4.493013   -2.324710
H       1.468255   -3.917142   -3.976719
