19

O      -0.306425    0.763745    1.589469
C       0.027108    0.196858    0.324009
C       1.209277   -0.778234    0.373336
C       0.941626   -2.037248    1.222923
C      -0.488413   -2.537258    1.137799
O      -1.462310   -1.757178    1.859312
C      -1.532775   -1.786396    0.417165
C      -1.219688   -0.476434   -0.283003
O      -2.329347    0.398752   -0.233520
H      -0.650584    0.034319    2.128731
H       0.291779    1.049981   -0.309399
H       1.428276   -1.078973   -0.659318
H       2.095716   -0.256102    0.745422
H       1.619034   -2.840153    0.913967
H       1.162166   -1.844324    2.279550
H      -0.629867   -3.609650    1.269425
H      -2.405135   -2.316970    0.037229
H      -1.032033   -0.697830   -1.342239
H      -2.215362    0.901158    0.586218
