15

F      -0.477999    0.399244   -0.764198
C       0.024622    1.393212   -0.015401
F       1.276120    1.041523    0.316453
F       0.108087    2.477970   -0.803385
C      -0.774765    1.737101    1.219173
C      -2.216159    1.530346    1.455674
C      -2.770111    0.215515    0.909888
C      -1.632433   -0.484056    1.694444
N      -1.156674    0.819817    2.301990
H      -0.374113    2.659296    1.635048
H      -2.819060    2.336206    1.863168
H      -3.754495   -0.007542    1.324313
H      -2.804640    0.099763   -0.173321
H      -1.988403   -1.125462    2.501567
H      -0.873915   -1.019898    1.122143
