18

C       0.068131    1.257320    1.137851
C      -0.173871    0.545663   -0.196314
O       0.904628   -0.323139   -0.532581
C      -1.482034   -0.197862   -0.230049
C      -1.961482   -1.277184   -0.909833
C      -1.307145   -2.149885   -1.929191
N      -3.286302   -1.495368   -0.522431
C      -3.531739   -0.564388    0.335452
O      -2.497305    0.267903    0.577092
H       1.037079    1.760929    1.102673
H      -0.711696    1.995364    1.340699
H       0.075005    0.539871    1.965876
H      -0.162738    1.297044   -0.996937
H       0.918820   -1.030150    0.123377
H      -1.336566   -3.199081   -1.615761
H      -1.840738   -2.088403   -2.883895
H      -0.269648   -1.852723   -2.083431
H      -4.445272   -0.372673    0.876731
