17

O      -0.287432    0.249517    0.893241
C      -0.148117    1.221952    0.197342
C      -1.232001    1.844421   -0.728010
C      -0.989374    3.381796   -0.701251
C       0.476918    3.468969   -0.337253
C       1.380436    4.253711    0.635904
C       1.941624    2.878419    1.162123
C       1.002505    2.173365    0.172494
O       1.297865    2.653255   -1.150032
H      -1.116915    1.437203   -1.736648
H      -2.218834    1.555572   -0.362557
H      -1.228864    3.870693   -1.650022
H      -1.594839    3.854673    0.078884
H       2.090774    4.935614    0.164242
H       0.812655    4.788434    1.400074
H       3.004439    2.683923    1.010770
H       1.677960    2.687111    2.203455
