19

C       0.007680    1.534670   -0.059372
C       0.020244    0.035636   -0.056201
C       0.583402   -0.913405   -1.163657
C       0.877592   -1.897507   -0.038454
C       0.599524   -0.888373    1.094967
C      -0.838097   -1.161817    1.605435
C      -1.255158   -0.886845    0.139696
C      -0.481388   -1.888064   -0.752327
O      -0.972571   -2.934276   -1.502136
H       1.024772    1.940537   -0.110398
H      -0.549573    1.924412   -0.919229
H      -0.463582    1.927963    0.848924
H       1.081799   -0.744617   -2.109315
H       1.527250   -2.763352   -0.058006
H       1.414402   -0.591682    1.756406
H      -1.062093   -2.143325    2.037866
H      -1.184622   -0.376253    2.284375
H      -2.261030   -0.590872   -0.158701
H      -1.130619   -3.683603   -0.916562
