22

C      -0.130728    1.572948    0.040155
C      -0.060028    0.046497   -0.053542
C      -1.436260   -0.619702    0.053175
C      -1.351960   -2.134577   -0.041480
O      -2.686163   -2.653858    0.068788
C      -2.785650   -4.007095    0.006438
O      -1.845198   -4.759007   -0.132394
N      -4.090246   -4.374566    0.123027
C      -4.510871   -5.757607    0.091883
H       0.863445    2.023341   -0.038510
H      -0.750467    1.989954   -0.761275
H      -0.566655    1.890746    0.993694
H       0.411387   -0.241292   -1.002319
H       0.594081   -0.339725    0.739051
H      -1.911267   -0.346855    1.003836
H      -2.094504   -0.247937   -0.742026
H      -0.915914   -2.455755   -0.993760
H      -0.732409   -2.555163    0.758099
H      -4.767472   -3.639297    0.233879
H      -5.193003   -5.953125   -0.743762
H      -3.615784   -6.367835   -0.034168
H      -5.009236   -6.048730    1.023913
