17

O       0.044774    1.317206   -0.124954
C       0.027215   -0.088308    0.127564
C      -1.420941   -0.498621    0.013569
O      -2.262580    0.225056    0.863824
C      -1.971827   -0.962070   -1.308163
C      -1.743470   -1.963217   -0.167377
O      -0.695684   -2.866425   -0.276552
C      -2.935883   -2.525665    0.507459
O      -2.938758   -3.676045    0.891102
H       0.865802    1.678487    0.220091
H       0.647619   -0.641379   -0.586593
H       0.384284   -0.311206    1.142273
H      -2.021562    1.151570    0.726880
H      -2.995624   -0.696198   -1.547603
H      -1.293517   -1.063726   -2.147716
H      -1.036405   -3.679279    0.133745
H      -3.801990   -1.854446    0.633811
