13

N      -0.014392    1.342266    0.097316
C      -0.005880   -0.013801    0.033502
N      -1.151861   -0.635364    0.021643
C      -1.197168   -1.997738   -0.000007
N      -2.264539   -2.677407    0.000049
O       0.051093   -2.719022   -0.031996
C       1.199903   -2.044336   -0.023584
C       1.266900   -0.703870    0.010465
H       0.817133    1.867743   -0.105908
H      -0.905613    1.799179   -0.012775
H      -2.048336   -3.672278   -0.022438
H       2.063555   -2.701246   -0.046647
H       2.215577   -0.185937    0.024752
