21

C       0.027221    1.575603   -0.029513
C       0.007150    0.057946    0.181701
C      -1.379911   -0.553635    0.005424
C      -2.032036   -0.607031   -1.429980
C      -2.231040   -2.108738   -1.264041
O      -3.380216   -2.715673   -1.737430
C      -0.898184   -2.791783   -1.072321
C      -1.558639   -2.074584    0.098517
O      -1.929902   -2.753437    1.248675
H       1.032981    1.984538    0.108758
H      -0.303205    1.840275   -1.039729
H      -0.638906    2.081696    0.678122
H       0.712611   -0.417310   -0.511826
H       0.370541   -0.173452    1.192245
H      -2.082834   -0.077087    0.698046
H      -2.977350   -0.064203   -1.485015
H      -1.391854   -0.304268   -2.265090
H      -3.510034   -3.537851   -1.252030
H      -0.973343   -3.873220   -0.987466
H       0.017157   -2.441129   -1.546398
H      -1.133325   -3.059080    1.696632
