12

O      -0.006992   -0.022198    0.003131
C       0.004424    1.180186    0.009136
C      -1.175349    2.122007    0.031295
C      -0.726589    3.386672    0.031054
N       0.686861    3.366633    0.009987
N       1.663698    4.289616    0.000201
C       2.745652    3.510128   -0.020123
N       2.508794    2.158977   -0.023197
C       1.191771    2.115785   -0.003853
H      -2.202207    1.793403    0.044848
H      -1.247954    4.332219    0.043568
H       3.740109    3.929389   -0.032817
