19

O       0.039163    1.429826    0.229357
C       0.000413    0.045047    0.034852
C      -0.530628   -0.844760    1.131303
C      -1.359909   -0.575899   -0.112793
C      -2.602960    0.268023   -0.035889
C      -3.193957    0.795082   -1.385083
C      -4.569658    0.297581   -0.916835
O      -5.692413    0.489357   -1.283756
C      -3.952350   -0.463689    0.267878
H       0.743306    1.622577    0.856919
H       0.801175   -0.347486   -0.591821
H      -0.092364   -1.826409    1.274660
H      -0.847545   -0.349456    2.043746
H      -1.422162   -1.395224   -0.826503
H      -2.443154    1.097262    0.654897
H      -3.106351    1.861340   -1.606145
H      -2.841047    0.230906   -2.256562
H      -3.909132   -1.541177    0.070420
H      -4.421157   -0.309756    1.243063
