15

C      -0.160430    1.334189   -0.118565
C       0.091448   -0.139660   -0.009773
N       1.232315   -0.661119    0.025689
O      -1.157685   -0.783983    0.041555
C      -1.308475   -2.115358    0.140955
N      -0.331855   -2.993522    0.202744
O      -0.967076   -4.231826    0.296796
C      -2.294429   -4.043123    0.287529
C      -2.595409   -2.727512    0.190828
H       0.793601    1.857100   -0.161058
H      -0.744832    1.556586   -1.016816
H      -0.738225    1.687447    0.741204
H       1.207863   -1.677556    0.101196
H      -2.893864   -4.937652    0.356034
H      -3.556669   -2.245291    0.158341
