16

O      -0.229715    0.002688    0.190387
C      -0.054413    1.186933    0.120979
N       1.164988    1.856267   -0.008638
C       1.155032    3.322567   -0.079111
C       2.227030    3.938098    0.817154
C       3.545441    3.265896    0.560201
C       3.603717    2.031205    0.056113
C       2.405521    1.183912   -0.170804
O       2.493908    0.007737   -0.427193
H      -0.884592    1.922040    0.177196
H       1.331969    3.639568   -1.115204
H       0.157956    3.669140    0.204126
H       2.294419    5.012424    0.614892
H       1.957744    3.838406    1.878435
H       4.457128    3.802403    0.808788
H       4.539997    1.519663   -0.134222
