19

C      -0.077066    1.576703    0.118512
C      -0.028610    0.048210    0.026180
C       0.770888   -0.579677    1.173439
N      -1.382817   -0.500307   -0.015424
N      -2.286604   -0.216977    0.975474
C      -3.363593   -0.851433    0.559259
N      -3.231038   -1.539655   -0.608727
C      -1.971273   -1.297468   -0.936005
N      -1.347652   -1.726279   -2.098704
H       0.938151    1.984020    0.114830
H      -0.624765    2.000293   -0.727586
H      -0.577242    1.883068    1.039969
H       0.425465   -0.229051   -0.931231
H       0.823278   -1.667769    1.070592
H       1.790904   -0.184542    1.186647
H       0.293863   -0.350602    2.129895
H      -4.285587   -0.827198    1.121623
H      -1.951347   -2.367747   -2.596547
H      -0.433258   -2.136016   -1.959135
