15

O       0.066048   -0.028094   -0.106446
C       0.001800    1.182269   -0.023276
N      -1.198268    1.870325   -0.133080
C      -1.303150    3.241312    0.048274
C      -0.231265    4.024928    0.159993
C       1.157815    3.437728    0.047114
N       1.089050    1.983901    0.240480
C       1.800112    3.802585   -1.229055
C       2.337461    4.097217   -2.263225
H      -2.014361    1.287571   -0.209719
H      -2.315195    3.625505    0.096036
H      -0.324587    5.093988    0.284638
H       1.784276    3.843698    0.854191
H       1.960359    1.477419    0.193735
H       2.804671    4.354960   -3.181716
