15

N       0.084469    1.401228    0.136250
C      -0.018919    0.009132    0.049317
C      -1.184154   -0.693802    0.035173
O      -2.389703   -0.087639    0.036797
C      -1.173142   -2.135534    0.007421
N      -2.334044   -2.717215   -0.006941
C       0.160215   -2.706573   -0.027908
N       1.270585   -2.024266   -0.009253
N       1.164549   -0.693784    0.031062
H       0.596135    1.813683   -0.637143
H      -0.837841    1.817501    0.185235
H      -3.013790   -0.846088    0.020327
H      -2.262297   -3.731626   -0.051799
H       0.281540   -3.785251   -0.066720
H       2.034554   -0.200194    0.152294
