13

O       0.135832   -0.124771   -0.325710
C       0.014264    1.061356   -0.113870
C       1.137128    1.925343    0.175940
C       2.053231    2.667540    0.416516
C      -1.339086    1.753813   -0.109286
C      -2.575554    0.871617   -0.301180
O      -3.024958    1.186588    1.063396
C      -1.946332    1.985164    1.300916
O      -1.671359    2.594807    2.279342
H       2.871280    3.310848    0.635554
H      -1.299726    2.678554   -0.689042
H      -3.306569    1.215235   -1.033535
H      -2.364325   -0.191905   -0.405821
