16

O      -0.213578    1.411781   -0.535622
C      -0.130707    0.128125   -0.011496
C      -0.697575   -0.195591    1.339561
C      -1.385708   -0.720881    0.080518
N      -2.576770   -0.051278   -0.311152
C      -3.558703   -0.727943   -0.714114
O      -4.736104   -0.173403   -1.128566
C      -4.735465    1.105595   -1.636035
O      -5.752525    1.689942   -1.827348
H      -1.153965    1.628001   -0.587723
H       0.785474   -0.365642   -0.319100
H      -0.193558   -0.919445    1.970455
H      -1.207052    0.603470    1.866204
H      -1.318607   -1.787899   -0.130428
H      -3.619330   -1.817754   -0.757880
H      -3.721115    1.467634   -1.851875
