17

C       0.035703   -1.211176    0.442880
C      -0.041495   -0.069163    0.074437
C      -0.105026    1.321127   -0.368325
C       1.280306    1.996424   -0.316972
C       1.901685    2.944162   -1.311556
C       0.940195    4.070178   -1.799841
O      -0.357189    3.886379   -1.212395
C       0.682283    4.495328   -0.430902
C       1.629579    3.392660    0.132581
H       0.088700   -2.221013    0.765819
H      -0.508882    1.364098   -1.383558
H      -0.816762    1.871301    0.253300
H       2.041015    1.306018    0.040815
H       2.857486    2.751546   -1.782138
H       0.997614    4.619842   -2.731123
H       0.482935    5.468282    0.000763
H       2.348853    3.589854    0.917351
