22

C      -0.078368    1.571204    0.082634
C      -0.079242    0.042597    0.000272
C       0.735862   -0.480281   -1.188169
C       0.781925   -2.021741   -1.284989
C      -0.579033   -2.568125   -1.366877
N      -1.667179   -2.951369   -1.435959
C       1.615769   -2.557268   -2.472593
C       3.056961   -2.047478   -2.478475
O       1.580278   -3.971600   -2.337236
H       0.938422    1.965375    0.190720
H      -0.512118    2.016618   -0.819430
H      -0.663132    1.920015    0.938857
H       0.329306   -0.376696    0.929159
H      -1.109037   -0.323609   -0.074620
H       0.328602   -0.075101   -2.123270
H       1.764058   -0.113344   -1.105669
H       1.238956   -2.425215   -0.371396
H       1.115647   -2.247676   -3.403704
H       3.114911   -0.971488   -2.663284
H       3.550733   -2.273028   -1.527736
H       3.618359   -2.546853   -3.275397
H       1.947241   -4.363600   -3.135447
