19

O      -0.078188    1.366170   -0.069155
C      -0.006228   -0.049029   -0.001982
C       1.017736   -0.517702   -1.041506
C       0.716893    0.079931   -2.401918
O       1.515888    0.673582   -3.078371
C      -0.044426   -0.705467    1.423025
C      -1.482043   -0.114926    1.562752
C      -1.414401   -0.710581    0.120299
C      -0.720238   -1.944491    0.767644
H       0.817215    1.720216   -0.037038
H       2.029334   -0.209025   -0.750913
H       1.027402   -1.607365   -1.147030
H      -0.327444   -0.081124   -2.753021
H       0.752055   -0.703659    2.169640
H      -2.140761   -0.640233    2.257773
H      -1.568457    0.965221    1.647614
H      -2.205266   -0.711316   -0.631168
H      -0.117305   -2.598036    0.136260
H      -1.353843   -2.534074    1.432994
