19

C      -0.244694    1.076121   -0.434441
C       1.106673    1.224320    0.169340
N       0.408675   -0.063640    0.205151
C      -0.063808   -0.533212    1.459449
C       0.570674   -1.652536    2.264491
N      -0.736983   -1.812311    3.015547
C      -0.798318   -0.509759    3.795186
C      -0.964351    0.232036    2.483344
C      -1.411624   -1.058793    1.844263
H      -1.075593    1.558986    0.073290
H      -0.360015    0.993075   -1.511327
H       1.990334    1.259673   -0.460701
H       1.175346    1.784908    1.098887
H       0.752653   -2.539167    1.652248
H       1.441513   -1.450110    2.898780
H      -1.702911   -0.497553    4.410363
H       0.076941   -0.317750    4.426749
H      -1.329184    1.234276    2.295594
H      -2.292369   -1.379353    1.305712
