12

O      -0.029613   -0.033599    0.049274
C       0.075144    1.132403   -0.161077
O       0.937016    1.920682    0.545116
C       0.913841    3.271400    0.301776
C      -0.154630    4.114838    0.347866
O       0.261651    5.378777    0.071760
C       1.602078    5.328245   -0.140219
C       2.065224    4.058346   -0.015166
H      -0.480794    1.709505   -0.921526
H      -1.199557    3.983882    0.570391
H       2.074781    6.268976   -0.368035
H       3.078698    3.709549   -0.127020
