19

C      -0.526555    1.423282   -0.006841
C      -0.024074   -0.010947   -0.055875
C       1.158730   -0.315659   -1.073998
C       2.046948   -0.701844    0.136636
C       2.835058    0.342508    0.954198
O       1.672913    0.540980    1.838264
C       0.936919   -0.452516    1.095572
C       1.112119   -1.929987    1.504462
O       2.186320   -2.088028    0.509103
H       0.290854    2.120531    0.198342
H      -0.986958    1.702183   -0.960394
H      -1.274291    1.552683    0.782395
H      -0.863920   -0.702083   -0.175239
H       0.973099   -1.148328   -1.754212
H       1.502554    0.548071   -1.650137
H       3.697865   -0.054832    1.498102
H       3.108016    1.270606    0.439075
H       1.474355   -2.085550    2.525739
H       0.272071   -2.602798    1.296401
