23

C      -0.010792    1.325023    0.141713
O      -0.111899   -0.059435   -0.105048
C       0.642731   -0.556114   -1.200688
C       0.199332    0.058397   -2.526338
C       2.209459   -0.567583   -1.025605
C       2.170637   -2.096038   -1.064893
C       1.299794   -2.592070    0.054965
C       0.642697   -2.097458   -1.205567
C      -0.269596   -2.964053   -2.028303
H       1.035311    1.657706    0.215808
H      -0.510381    1.931655   -0.627131
H      -0.502687    1.512527    1.099930
H       0.436375    1.125785   -2.569052
H       0.711470   -0.424807   -3.363186
H      -0.879865   -0.061613   -2.664927
H       2.727556   -0.106966   -1.870374
H       2.589164   -0.131324   -0.095902
H       2.893452   -2.731157   -1.563287
H       1.267938   -3.669454    0.185831
H       1.215716   -2.022922    0.976081
H      -1.294866   -2.939780   -1.640208
H      -0.303738   -2.652295   -3.077742
H       0.064805   -4.006451   -2.004817
