17

C       0.058386    1.544711    0.103162
C       0.015353    0.024508    0.018498
C       0.495617   -0.485982   -1.343831
N       0.487799   -1.913047   -1.600238
C       0.813703   -2.812102   -0.780772
O       1.160758   -2.774047    0.537609
C       0.590160   -1.796573    1.404864
O       0.841751   -0.480655    1.069678
H       1.080339    1.907111   -0.044006
H      -0.582676    1.992460   -0.661346
H      -0.284776    1.879403    1.085122
H      -1.015134   -0.329857    0.187002
H      -0.114101   -0.008339   -2.119768
H       1.524808   -0.127611   -1.492062
H       0.897560   -3.841064   -1.132195
H      -0.494905   -1.984319    1.456855
H       1.059896   -1.986133    2.371347
