12

O       0.069013    1.345488   -0.002331
C       0.064732    0.000117    0.064335
N       0.087461   -0.752485   -1.030269
N       0.074379   -2.016941   -0.557850
C       0.043991   -2.077357    0.802833
C       0.036897   -0.761277    1.247674
C       0.025886   -3.301405    1.502821
C       0.010700   -4.353652    2.087982
H       0.090175    1.584345   -0.937580
H       0.087011   -2.790487   -1.199739
H       0.015019   -0.415647    2.266297
H      -0.002829   -5.277831    2.611005
