19

C      -0.527283    1.319006   -0.101882
C       0.082582   -0.075443   -0.110998
C       1.445389   -0.270439   -0.796366
O       1.946162    0.194906   -1.778634
C       1.955136   -1.160682    0.347342
C       0.715973   -0.712357    1.171765
C       0.912215    0.105810    2.467507
O       0.174053   -0.859314    3.242182
C      -0.064612   -1.677719    2.081111
H       0.172330    2.059731    0.297215
H      -0.780492    1.622166   -1.121758
H      -1.440470    1.352716    0.500840
H      -0.627296   -0.794092   -0.545496
H       1.937380   -2.223800    0.081631
H       2.945452   -0.918907    0.743593
H       1.951459    0.200523    2.808938
H       0.439293    1.095395    2.492147
H      -1.136177   -1.772635    1.857612
H       0.366273   -2.682370    2.187447
