17

N      -0.017410   -1.087243   -0.398034
C      -0.016972    0.048757   -0.179080
C      -0.024363    1.487382    0.065096
N      -0.387615    2.315121   -1.131583
C       0.961718    2.947303   -1.148763
C       1.368009    2.212475    0.155245
C       1.364388    2.994240    1.485132
C      -0.001411    2.716184    2.069148
C      -0.744860    1.897458    1.328120
H      -0.596736    1.762840   -1.956158
H       1.578941    2.678061   -2.012382
H       0.916105    4.039904   -1.081067
H       2.237979    1.566652    0.047019
H       2.163005    2.663463    2.160151
H       1.524537    4.068539    1.325444
H      -0.326429    3.163160    3.002577
H      -1.754682    1.572051    1.544564
