22

C      -0.119503    1.464430    0.473234
C      -0.326715   -0.041207    0.653619
C      -1.376125   -0.601556   -0.296372
O      -1.508232   -1.988638   -0.065799
C      -2.449749   -2.613815   -0.906910
C      -2.506419   -4.106592   -0.571976
C      -2.931929   -4.365321    0.869954
O      -3.343324   -4.773210   -1.510951
H       0.639674    1.842088    1.164043
H       0.209617    1.703458   -0.544117
H      -1.044588    2.020796    0.660806
H       0.614336   -0.577825    0.487097
H      -0.634657   -0.262641    1.682024
H      -2.345048   -0.094941   -0.140703
H      -1.083524   -0.415173   -1.344476
H      -3.452573   -2.165560   -0.771774
H      -2.178291   -2.493775   -1.967704
H      -1.506424   -4.524385   -0.735324
H      -3.944538   -3.978669    1.047438
H      -2.931795   -5.437568    1.083378
H      -2.255822   -3.859427    1.563390
H      -4.254903   -4.532880   -1.311403
