20

C      -0.235072    1.562362   -0.069541
C       0.202451    0.095472   -0.020697
N       0.820171   -0.360670   -1.242696
C       0.290770   -0.605640   -2.593408
C       1.698987   -1.114732   -2.949320
C       2.129630   -2.292790   -3.773320
C       2.537222   -0.898782   -4.174913
C       2.090524   -0.824315   -1.512260
O       3.077871   -0.937356   -0.829978
H       0.621192    2.216187   -0.258260
H      -0.974216    1.730713   -0.859505
H      -0.690691    1.854834    0.881581
H       0.948515   -0.056055    0.765908
H      -0.658507   -0.544720    0.218629
H      -0.505964   -1.358874   -2.625922
H      -0.035688    0.298333   -3.119902
H       2.882577   -2.943690   -3.341702
H       1.375546   -2.797396   -4.368146
H       2.059616   -0.456056   -5.042685
H       3.568360   -0.599925   -4.019016
