19

C      -0.261622    1.558416    0.232199
C       0.010736    0.090307   -0.038481
C       0.564227   -0.548214   -1.298544
C       1.458057    0.215971   -2.253671
O       1.811506    1.560084   -1.872235
C       2.747668    0.503612   -1.613510
C       2.703037    0.023107   -0.158834
O       3.024569    1.039659    0.772744
C       1.326829   -0.653227    0.016146
H      -1.248081    1.830375   -0.159750
H      -0.278792    1.740458    1.312622
H       0.462679    2.221196   -0.234323
H      -0.779721   -0.528890    0.384875
H       0.037121   -1.395022   -1.725199
H       1.349639    0.065809   -3.324247
H       3.697032    0.591357   -2.136259
H       3.474196   -0.743522   -0.022744
H       2.462700    1.795225    0.567966
H       1.332522   -1.578914    0.581577
