19

C       0.144951    1.574854    0.009338
C      -0.060801    0.068729   -0.131396
C       0.694953   -0.541384   -1.302605
O       1.270144    0.118638   -2.131334
C       0.703956   -2.088212   -1.366321
O       0.945454   -2.547439   -2.681065
C       2.259403   -3.094662   -2.778424
C       2.744030   -3.184806   -1.358645
C       1.852235   -2.633310   -0.544091
H       1.196611    1.810069    0.194445
H      -0.145174    2.090338   -0.909079
H      -0.448727    1.973029    0.836754
H       0.225692   -0.465273    0.785475
H      -1.124119   -0.172354   -0.275698
H      -0.274466   -2.461577   -1.025597
H       2.202354   -4.073564   -3.275553
H       2.901861   -2.445556   -3.392474
H       3.688918   -3.632850   -1.079298
H       1.917445   -2.533405    0.531209
