15

O      -0.000086    0.037353   -0.268086
C      -0.024240    1.214374   -0.104877
C      -1.137257    2.248366    0.279390
C      -0.020848    3.100407    0.922900
C       0.775085    2.920297    2.234550
C       1.901452    3.095629    1.184721
C       1.015627    4.078252    0.304529
O       1.169001    3.334783   -0.935805
C       1.071302    2.316971    0.111950
H      -1.588591    2.708147   -0.602852
H      -1.924200    1.862973    0.930419
H       0.670568    3.703910    2.989254
H       0.724273    1.933748    2.705082
H       2.984472    3.126718    1.318126
H       1.040702    5.170227    0.259657
