20

C       0.750343    0.361738    0.661850
C      -0.482163    0.131726   -0.193155
O      -1.534891    0.680911    0.046453
C      -0.374066   -0.853844   -1.356710
C       0.890256   -0.751259   -2.251910
C       1.088794   -2.164743   -2.852274
C       0.509180   -3.095837   -1.804305
N       0.962016   -2.781426   -0.431111
C      -0.363409   -2.312997   -0.895798
H       1.301727   -0.570362    0.814346
H       1.425818    1.057360    0.149171
H       0.452966    0.809155    1.611488
H      -1.281350   -0.709199   -1.953212
H       0.783783    0.019744   -3.018717
H       1.758474   -0.493791   -1.643624
H       0.520092   -2.282033   -3.782293
H       2.139196   -2.373090   -3.077647
H       0.285679   -4.128137   -2.054007
H       0.835407   -3.598338    0.160612
H      -1.257517   -2.730143   -0.444621
