18

C      -0.062485    1.542081    0.190360
C      -0.001811    0.020407    0.034526
C       1.075866   -0.548499   -0.978153
C       1.748732   -1.247556    0.209271
O       2.094890   -0.237959    1.165251
C       0.751542   -0.730792    1.155948
C      -1.401951   -0.560250   -0.156259
N      -1.941004   -0.398137   -1.400904
O      -2.003101   -1.116246    0.744019
H       0.931033    1.919889    0.443006
H      -0.393167    2.029648   -0.733107
H      -0.757855    1.824513    0.987485
H       0.647777   -1.246951   -1.701038
H       1.693155    0.190467   -1.496250
H       2.328970   -2.162429    0.220680
H       0.341436   -1.137801    2.070181
H      -1.484622    0.140012   -2.116240
H      -2.899800   -0.672514   -1.540797
