23

C      -0.309980    1.534285   -0.031900
C       0.003832    0.037786   -0.000723
C       0.830184   -0.467918   -1.229692
C       1.983935   -1.308691   -0.627864
C       1.384338   -1.795007    0.705668
C       0.817334   -0.461921    1.226142
C       2.003584    0.454101    1.566161
O       2.802871    0.745020    0.427484
C       3.188341   -0.411535   -0.303035
H       0.605669    2.125529   -0.122417
H      -0.949648    1.777056   -0.887194
H      -0.838706    1.852740    0.873829
H      -0.949208   -0.505259    0.017082
H       0.210785   -1.079187   -1.892914
H       1.212351    0.368381   -1.823209
H       2.310251   -2.121743   -1.283887
H       0.587726   -2.529425    0.541690
H       2.126002   -2.244472    1.374901
H       0.191919   -0.571655    2.118770
H       1.669024    1.423648    1.946771
H       2.614323   -0.020618    2.353430
H       3.942859   -0.987963    0.259600
H       3.662160   -0.037600   -1.216619
