16

O       0.206184    1.362761   -0.137356
C       0.041798   -0.018647    0.017976
C       0.491536   -0.603686    1.376961
O      -0.192624    0.145567    2.434320
C      -1.476033    0.464997    2.159457
N      -2.147898    0.227017    1.103627
C      -1.418477   -0.533842    0.061173
C      -1.196961   -1.952778    0.555353
C      -0.091761   -1.994356    1.309215
H      -0.517378    1.804156    0.323719
H       0.599548   -0.507754   -0.784434
H       1.551242   -0.510579    1.608970
H      -1.923980    0.996417    2.997940
H      -1.959713   -0.447209   -0.881736
H      -1.882483   -2.769551    0.364656
H       0.295387   -2.845962    1.854218
