14

N      -0.254185   -1.029287    0.335539
C      -0.094781    0.084584    0.076966
C       0.118284    1.487808   -0.281683
N       1.390817    1.968262    0.262983
C       1.675701    3.313207    0.101020
C       2.780206    4.030831   -0.235016
N       2.486053    5.386816   -0.108180
C       1.256246    5.420613    0.266753
O       0.682234    4.189183    0.425877
H       0.048071    1.582694   -1.377020
H      -0.688741    2.089072    0.146286
H       2.173801    1.384629    0.000529
H       3.749636    3.680063   -0.548318
H       0.622315    6.271200    0.456481
