23

C       0.018071    1.595988    0.136207
C      -0.012962    0.066041    0.160820
C      -1.402437   -0.511739   -0.154957
C      -1.443320   -2.013469   -0.130283
C      -1.589378   -2.846764    1.136636
C      -2.570670   -3.019929    0.013887
C      -4.059728   -2.936940    0.093208
O      -2.007908   -3.895968   -0.977290
C      -0.942511   -2.943496   -1.232600
H       1.017830    1.979294    0.362646
H      -0.272110    1.983206   -0.847005
H      -0.674891    2.017595    0.873139
H       0.714530   -0.328041   -0.560746
H       0.308561   -0.297774    1.144609
H      -2.128573   -0.116962    0.568259
H      -1.728597   -0.150417   -1.140651
H      -0.889973   -3.646744    1.367615
H      -1.952241   -2.291284    1.997168
H      -4.364566   -2.178676    0.820289
H      -4.492680   -2.685032   -0.879980
H      -4.479982   -3.897461    0.413046
H      -1.040715   -2.516501   -2.238933
H       0.052593   -3.391364   -1.119545
