19

O       0.005058    1.415617    0.087746
C      -0.013456    0.003740   -0.012147
C      -1.424236   -0.485509   -0.044968
C      -2.531759    0.257833   -0.016570
C      -3.788740   -0.573345   -0.048311
C      -3.256320   -1.991345   -0.283952
C      -4.068423   -3.202927   -0.150413
O      -3.745570   -2.679602   -1.441840
C      -1.735470   -1.964368   -0.096556
H       0.921257    1.705036    0.066446
H       0.509222   -0.342802   -0.921873
H       0.513214   -0.466954    0.838226
H      -2.536441    1.338599    0.038327
H      -4.351257   -0.497674    0.892744
H      -4.478982   -0.293248   -0.852625
H      -3.593025   -4.150606    0.103726
H      -5.116474   -3.124053    0.139123
H      -1.244861   -2.487473   -0.926551
H      -1.426118   -2.473810    0.827221
