19

C      -0.069796    1.558482    0.006827
C       0.013295    0.025187    0.017617
C       0.696995   -0.514488   -1.252652
N       1.046277   -1.935488   -1.190393
C       1.960686   -2.214037   -0.075531
C       1.631108   -1.470811    1.211816
C       0.742149   -0.481742    1.239129
C       2.003816   -3.663725    0.169584
N       2.030741   -4.798309    0.384835
H       0.930336    2.005373   -0.007477
H      -0.611705    1.915009   -0.875292
H      -0.590631    1.932307    0.894105
H      -1.017469   -0.362543    0.046701
H       0.060709   -0.357737   -2.129513
H       1.623608    0.048664   -1.427489
H       0.201788   -2.485975   -1.063371
H       2.975601   -1.925799   -0.394850
H       2.164831   -1.781084    2.105213
H       0.530162    0.018578    2.182055
