22

C       0.075986    1.430345   -0.240964
C       0.009472   -0.082225    0.011081
C       0.819975   -0.467990    1.256022
C      -1.437804   -0.559374    0.126315
C      -2.348867   -0.447889   -1.146215
C      -2.750841   -1.886390   -0.906524
C      -1.701489   -2.103185    0.162650
N      -3.708412   -2.555971   -1.393355
O      -3.746855   -3.852169   -0.838356
H       1.111316    1.763949   -0.365546
H      -0.477077    1.715726   -1.141496
H      -0.351606    1.985127    0.602846
H       0.455221   -0.592200   -0.856708
H       0.799848   -1.547960    1.433071
H       1.867267   -0.165538    1.153593
H       0.418685    0.024170    2.150068
H      -1.916607   -0.070334    0.982151
H      -3.150224    0.294705   -1.134943
H      -1.768938   -0.317747   -2.067638
H      -0.851416   -2.697331   -0.193338
H      -2.055817   -2.542124    1.098413
H      -4.516595   -4.233501   -1.273614
