19

O      -0.117952    1.363814   -0.086419
C       0.054453   -0.030609   -0.008818
C       1.171671   -0.662354   -0.797952
C       1.259423   -0.567051    0.719421
C      -1.295671   -0.690905    0.110775
C      -2.405210    0.035466    0.875816
C      -2.490963   -0.057682   -0.606369
C      -1.355274   -2.173828    0.207411
O      -2.381523   -2.806245    0.306612
H       0.746295    1.778256   -0.163531
H       1.021765   -1.636617   -1.251177
H       1.802087   -0.000974   -1.384823
H       1.948233    0.157806    1.142941
H       1.169562   -1.476110    1.304751
H      -3.056449   -0.601843    1.462320
H      -2.131877    0.987218    1.312626
H      -2.276484    0.830132   -1.186999
H      -3.200644   -0.758473   -1.030052
H      -0.379340   -2.705167    0.184258
