18

C       0.141293    1.566859   -0.104470
C       0.002888    0.054628    0.070461
O       0.564360   -0.610707   -1.062097
C       1.450242   -1.642554   -0.657099
C       1.556773   -1.482507    0.843332
C       2.404667   -2.281225    1.650441
N       3.104159   -2.943391    2.295168
C       0.727528   -0.518219    1.267061
C       0.481263   -0.055900    2.662169
H       1.195670    1.857479   -0.124090
H      -0.319129    1.867621   -1.048936
H      -0.361332    2.101804    0.707290
H      -1.071702   -0.193101    0.143765
H       1.051647   -2.632245   -0.929186
H       2.416630   -1.523929   -1.165552
H       1.057753   -0.637038    3.384888
H       0.747000    1.001453    2.776976
H      -0.582708   -0.141661    2.915078
