13

C      -0.164783   -1.220137   -0.164051
C      -0.098724   -0.027964   -0.033107
C      -0.015336    1.412145    0.113533
O      -0.080105    1.866680    1.486101
C       1.279827    2.334778    1.471591
C       1.403399    2.071795   -0.052033
C       2.508201    1.256736   -0.516454
N       3.400040    0.617481   -0.879071
H      -0.217381   -2.275145   -0.279496
H      -0.785758    1.901412   -0.493058
H       1.361776    3.381901    1.777249
H       1.939370    1.714339    2.087612
H       1.348873    2.985939   -0.645879
