21

O      -0.251022    1.409902   -0.158084
C      -0.044309    0.023413   -0.030447
C       1.108359   -0.516928   -0.855156
C       2.468219    0.072155   -0.457217
C       3.628400   -0.487487   -1.298335
C       4.937230    0.194420   -0.974478
O       5.939889   -0.363588   -0.610751
C      -0.388959   -0.605948    1.298163
C      -1.306205   -0.772159    0.099999
H       0.395047    1.860029    0.396143
H       1.138222   -1.608603   -0.756224
H       0.914718   -0.298522   -1.913539
H       2.435163    1.163542   -0.572995
H       2.659896   -0.127781    0.604716
H       3.749480   -1.565153   -1.153547
H       3.415945   -0.308073   -2.362691
H       4.911796    1.304689   -1.091231
H       0.183585   -1.463594    1.635778
H      -0.724303    0.057412    2.087699
H      -2.231708   -0.208696    0.102744
H      -1.359922   -1.742625   -0.381068
