18

C      -0.154708    1.451228    0.308669
C       0.046364   -0.033442    0.053882
C       1.401025   -0.519299   -0.450585
C       0.992295   -0.832950    0.956439
N       1.685824   -0.183757    2.026046
C       1.126395   -0.004872    3.258575
O      -0.021132   -0.264232    3.540429
C      -1.115940   -0.738701   -0.416501
C      -2.092670   -1.317349   -0.813904
H       0.767308    1.912109    0.670524
H      -0.457942    1.958715   -0.611595
H      -0.932139    1.604848    1.061742
H       1.425386   -1.328570   -1.169858
H       2.159352    0.244333   -0.593876
H       0.668111   -1.845588    1.176076
H       2.677402   -0.026881    1.930420
H       1.853274    0.420414    3.980108
H      -2.958871   -1.828714   -1.153475
