16

C       0.069698    1.437107   -0.104535
N      -0.076443    0.012132    0.092854
C       0.583633   -0.664409    1.095032
C       1.162554   -0.031112    2.206190
N       1.754337   -0.728978    3.177896
C       1.782489   -2.046253    3.055176
O       2.374354   -2.781532    4.026524
C       1.222264   -2.688360    1.944991
N       0.632776   -2.002677    0.977044
H       1.117671    1.756049   -0.217723
H      -0.476685    1.725413   -1.004620
H      -0.362971    1.994544    0.734505
H      -0.226531   -0.555205   -0.726831
H       1.149788    1.047760    2.319075
H       2.692221   -2.149984    4.685589
H       1.264214   -3.769772    1.852341
