13

N      -0.070121    1.201572   -0.227431
C      -0.065748   -0.033362   -0.041180
C      -1.096489   -1.073509    0.167620
C      -0.608808   -2.358990   -0.542743
O       0.313278   -2.259455   -1.607475
C       1.366637   -1.490437   -1.165313
O       2.313284   -1.219190   -1.826084
N       1.059093   -1.013137    0.177234
C       0.035323   -1.964818    0.712547
H       0.878041    1.576486   -0.290076
H      -2.122230   -0.952133    0.488269
H      -1.300357   -3.183063   -0.648340
H       0.167856   -2.476831    1.654700
