19

C      -0.048637    1.354064   -0.277755
C       0.056982   -0.109786    0.165799
C       0.709880   -0.247669    1.546185
N      -1.256433   -0.742914    0.156008
C      -1.590564   -1.786312   -0.621363
O      -0.872419   -2.363285   -1.426662
C      -3.057582   -2.217608   -0.390171
N      -3.388692   -3.262659   -1.170155
O      -3.782168   -1.649887    0.409753
H       0.942260    1.817361   -0.307050
H      -0.494594    1.429205   -1.273068
H      -0.667482    1.931371    0.419006
H       0.644820   -0.667874   -0.568760
H       0.119943    0.268593    2.312459
H       0.797304   -1.298860    1.833457
H       1.711074    0.193882    1.541648
H      -1.998979   -0.408417    0.758418
H      -2.680323   -3.629539   -1.787099
H      -4.312738   -3.656720   -1.132178
