16

O      -0.248990    1.443205    0.158898
C      -0.072817    0.089949    0.094322
C       0.049807   -0.596231   -1.096430
C       0.044011   -0.119440   -2.514101
C       1.403715   -0.430681   -3.116841
O       1.628918   -1.397705   -3.801967
N       0.217445   -1.929577   -0.763950
C       0.195130   -2.085238    0.590250
C       0.011529   -0.843580    1.162485
H      -0.372240    1.693090    1.078673
H      -0.727247   -0.612582   -3.117404
H      -0.133912    0.959929   -2.512848
H       2.216034    0.267204   -2.815360
H       0.380822   -2.658066   -1.437894
H       0.309018   -3.056078    1.044302
H      -0.058540   -0.630741    2.218700
