17

C      -0.054820    1.524177    0.010932
C       0.070985    0.012903    0.001279
O       1.143757   -0.545866   -0.011997
C      -1.235587   -0.773706    0.009560
C      -1.003898   -2.293201   -0.000962
C      -2.240276   -3.057757    0.006571
C      -3.270969   -3.688632    0.013553
C      -4.515731   -4.410898    0.021386
O      -4.612823   -5.616977    0.016379
H       0.936529    1.978060    0.004091
H      -0.623440    1.865246   -0.861462
H      -0.606820    1.855428    0.897665
H      -1.820529   -0.477100    0.889257
H      -1.837349   -0.467496   -0.855385
H      -0.406797   -2.567231   -0.878260
H      -0.389973   -2.576691    0.861612
H      -5.415221   -3.761369    0.033005
