19

O       0.060855    1.488191   -0.200671
C       0.130021    0.075354   -0.121077
C      -1.281709   -0.478592    0.045440
C      -2.138346    0.188132    1.151013
O      -3.076152    0.697022    0.185604
C      -2.349628    0.118420   -0.911807
C      -1.226865   -1.988992    0.054556
C      -1.104730   -2.785790    1.282547
O      -2.348625   -2.692022    0.584961
H       0.952945    1.831720   -0.301480
H       0.584467   -0.352087   -1.030859
H       0.746996   -0.246720    0.733821
H      -2.616183   -0.505029    1.852055
H      -1.633060    0.993228    1.695160
H      -1.974568    0.879898   -1.603872
H      -2.948689   -0.622078   -1.456664
H      -0.834347   -2.428490   -0.865990
H      -0.622835   -3.761567    1.251301
H      -1.076378   -2.284680    2.249374
