17

N      -0.073909   -1.144292    0.034534
C      -0.061393    0.010846    0.011843
C      -0.011285    1.472046   -0.016560
C       1.412687    1.986985   -0.014162
C       2.324399    1.882449    1.227528
C       2.886406    3.198400    0.722317
C       2.899574    3.168917   -0.771772
C       2.346121    1.833853   -1.234488
N       1.633660    3.536045   -0.042781
H      -0.535464    1.832398   -0.909150
H      -0.550998    1.867156    0.851731
H       1.757432    2.027934    2.151159
H       2.976871    1.009600    1.322847
H       3.413020    3.959158    1.286639
H       3.436309    3.907005   -1.356304
H       2.999876    0.958155   -1.283767
H       1.795581    1.942576   -2.172995
