23

C       0.077925    1.568715   -0.067888
C       0.030361    0.041703    0.003725
O       0.724772   -0.437843    1.155693
C      -1.402177   -0.503763   -0.072164
C      -1.489273   -2.028580   -0.079705
C      -1.272268   -2.850002    1.241483
C      -2.627048   -3.533800    1.021754
C      -3.717502   -2.502141    0.997776
C      -2.869004   -2.689163   -0.231773
H       1.110666    1.920036    0.007355
H      -0.348663    1.937649   -1.006335
H      -0.495477    2.014128    0.755184
H       0.603202   -0.369284   -0.837973
H       0.274613   -0.086842    1.932179
H      -1.984073   -0.091970    0.765209
H      -1.872245   -0.115076   -0.986186
H      -0.813252   -2.415006   -0.850528
H      -0.412600   -3.519155    1.180299
H      -1.185761   -2.268595    2.164897
H      -2.837315   -4.584459    1.181118
H      -4.728177   -2.889677    0.915309
H      -3.640792   -1.604629    1.607802
H      -3.312522   -2.983604   -1.176447
