20

C       0.165475    1.598378   -0.018947
C      -0.032746    0.074351    0.071670
C       0.660217   -0.537477    1.263043
C      -0.023320   -1.016959    2.340420
C       0.649101   -1.463434    3.549575
O       0.072191   -1.897098    4.532646
C       2.172069   -1.272723    3.542320
C       2.752095   -1.414993    2.137199
N       2.030600   -0.540775    1.217610
H       1.224215    1.861688   -0.098802
H      -0.351027    2.000323   -0.895260
H      -0.234199    2.091798    0.871565
H      -1.098978   -0.156612    0.133852
H       0.341173   -0.397728   -0.847573
H      -1.106323   -1.003987    2.343194
H       2.378889   -0.265643    3.928889
H       2.624196   -1.990453    4.230100
H       3.812917   -1.149147    2.116931
H       2.661918   -2.464755    1.811485
H       2.440400   -0.427333    0.303017
