17

C       0.012852    1.538258   -0.028267
C      -0.004491    0.040892    0.017633
C      -0.066707   -0.787970   -1.043244
N      -0.103141   -2.180650   -0.738307
C       1.194463   -2.650973   -0.198270
C       0.096821   -2.224501    0.724246
C       0.068934   -0.814044    1.218933
N       0.051384   -0.575563    2.477537
O      -0.031619    0.798708    2.760564
H       0.907142    1.939903    0.456945
H      -0.008237    1.888209   -1.064639
H      -0.844040    1.963077    0.501811
H      -0.086271   -0.502321   -2.088490
H       1.387804   -3.712496   -0.319337
H       2.049638   -1.993194   -0.321459
H      -0.446139   -2.982787    1.276686
H      -0.049233    0.802935    3.723036
