11

O      -0.090610    1.351660    0.010744
C       0.003128    0.009157    0.002889
N       1.178355   -0.520705   -0.007273
O       1.245009   -1.910883   -0.015195
C       0.133291   -2.738116   -0.012402
O       0.311002   -3.926479   -0.021055
C      -1.164469   -2.064346   -0.001286
C      -1.236606   -0.725223    0.006439
H       0.810675    1.706411    0.007136
H      -2.035328   -2.707911    0.000311
H      -2.170574   -0.175269    0.015011
