20

C       0.583770    0.199966   -1.032724
N      -0.105454    0.057675    0.252252
C       0.030001    1.252988    1.081443
C      -1.422050   -0.408648    0.158769
N      -2.522849    0.294162    0.324122
C      -3.553898   -0.606664    0.179024
C      -3.069128   -1.856196   -0.085513
N      -1.691278   -1.732233   -0.085396
C      -0.726459   -2.804116   -0.210159
H       1.649562    0.372859   -0.853188
H       0.482862   -0.713654   -1.622881
H       0.189614    1.039743   -1.628166
H      -0.418735    2.143580    0.617795
H      -0.461177    1.089032    2.041757
H       1.094733    1.441933    1.251936
H      -4.584796   -0.299515    0.269318
H      -3.547784   -2.804065   -0.269182
H      -0.513369   -3.046456   -1.257890
H       0.199638   -2.492274    0.276767
H      -1.106035   -3.702002    0.283842
