19

C       0.443207    1.003352    0.667291
C      -0.120628   -0.226498   -0.024007
O       0.826149   -0.677331   -0.978134
C       0.488627   -1.888009   -1.641624
C      -0.538424   -1.694247   -2.758654
C       1.769971   -2.530796   -2.203984
N       2.921932   -1.931697   -1.817451
O       1.712766   -3.515436   -2.917036
H       1.380273    0.763977    1.178646
H       0.640491    1.795981   -0.060062
H      -0.267571    1.382140    1.407593
H      -0.322403   -1.025892    0.707633
H      -1.075540    0.016246   -0.512906
H       0.093428   -2.608771   -0.906802
H      -0.197637   -0.919238   -3.451852
H      -0.646482   -2.632214   -3.306081
H      -1.513207   -1.401897   -2.359534
H       2.882563   -1.085545   -1.275928
H       3.794540   -2.281685   -2.174797
