20

C       1.973693    0.337057   -1.801314
O       1.360059   -0.769623   -1.185568
C       0.078773   -1.044918   -1.709420
C      -0.441409   -2.263478   -0.981291
C      -1.449589   -2.158957    0.135120
C      -1.994220   -0.884802    0.513311
C      -2.475485    0.165221    0.851833
N      -1.783709   -2.789597   -1.158450
C      -2.721870   -2.127111   -2.058126
H       2.954916    0.465568   -1.338219
H       2.108786    0.179795   -2.883632
H       1.389764    1.260139   -1.659915
H      -0.587351   -0.180179   -1.579054
H       0.144323   -1.255502   -2.792014
H       0.322496   -3.033018   -0.877665
H      -1.375980   -2.871599    0.954050
H      -2.892627    1.092528    1.158062
H      -2.721697   -1.030843   -2.005847
H      -2.492928   -2.433021   -3.083551
H      -3.731466   -2.474584   -1.819740
