17

N      -0.553542   -0.895010   -0.744669
C      -0.359616    0.212522   -0.478470
C      -0.081419    1.607254   -0.139183
C       1.356545    1.808010    0.368175
C       2.454749    1.633379   -0.719066
C       2.541706    3.189283   -0.847864
C       1.756812    3.305296    0.499282
C       3.859711    3.794881   -0.917409
N       4.914452    4.267522   -0.952303
H      -0.268973    2.222311   -1.028067
H      -0.797052    1.933576    0.624299
H       1.501551    1.207837    1.268102
H       3.374297    1.209894   -0.312658
H       2.184167    1.085150   -1.623422
H       1.944948    3.553177   -1.688585
H       0.951424    4.042794    0.526630
H       2.425693    3.481778    1.342969
