10

F       0.011981    0.016070    0.003177
C      -0.040525    1.337771    0.010821
N      -1.195740    1.900810    0.029048
N      -1.161540    3.237717    0.035763
C      -0.025074    4.064618    0.025214
O      -0.138385    5.265394    0.033139
N       1.200914    3.377788    0.005413
C       1.182500    2.086217   -0.001260
H      -2.063551    3.694878    0.050091
H       2.128822    1.545478   -0.016546
