19

C      -0.406876    1.451160   -0.260733
C       0.392788    0.198155    0.090836
N       0.996570   -0.375805   -1.106479
C       2.047232   -1.056595   -0.976396
N       2.878235   -1.441275    0.094532
C       3.737708   -2.312448   -0.738161
C       2.921474   -1.816263   -1.948100
C       2.582858   -2.446397   -3.223046
O       3.458562   -1.312866   -3.147439
H       0.246704    2.215725   -0.690956
H      -1.177834    1.215202   -0.999735
H      -0.889776    1.869301    0.628403
H       1.152144    0.441727    0.852165
H      -0.280269   -0.544653    0.546040
H       2.544972   -1.694313    1.012979
H       4.792024   -2.022264   -0.736568
H       3.644092   -3.384245   -0.531734
H       3.056874   -3.386502   -3.502017
H       1.606691   -2.250616   -3.662232
