8

O      -0.123343    0.009459    0.004019
N      -0.025168    1.222338    0.007063
O       0.990931    1.891646    0.002620
C      -1.285502    1.962966    0.017152
N      -1.358005    3.260214    0.021250
O      -2.670887    3.504573    0.030222
N      -3.370212    2.269862    0.031342
N      -2.513516    1.356194    0.023277
