18

C       0.024840    1.490759   -0.261907
O       1.425463    1.589094    0.155608
C       1.270701    0.355978    0.865785
C       1.953817   -0.997336    1.070369
N       0.775217   -1.258418    2.003633
C      -0.591024   -0.797020    1.307493
C      -0.735361    0.229465    2.443264
C       0.787051    0.225652    2.360037
C      -0.003138   -0.018335    0.131891
H      -0.611604    2.166545    0.318582
H      -0.084761    1.702002   -1.328556
H       2.075643   -1.658962    0.208977
H       2.849517   -1.006825    1.697165
H      -1.318889   -1.587323    1.134317
H      -1.297058    1.143826    2.247280
H      -1.070659   -0.233144    3.373827
H       1.458733    0.554523    3.153760
H       0.173067   -0.642086   -0.746729
