17

C      -0.001171    1.490033   -0.136870
C       0.030805   -0.034775    0.079006
C       0.762808   -0.374923    1.302452
N       1.334577   -0.610307    2.278628
C      -1.393842   -0.623248    0.128561
N      -2.176571   -0.423144   -1.118197
C      -2.554378   -1.859964   -1.217100
C      -1.554980   -2.145708   -0.085269
O      -1.065178   -3.119402    0.394946
H       1.011539    1.890356   -0.223237
H      -0.546777    1.706371   -1.058237
H      -0.497417    1.992005    0.698937
H       0.553499   -0.498153   -0.766309
H      -1.897572   -0.292545    1.048547
H      -2.963801    0.205395   -1.016679
H      -3.585893   -2.102600   -0.928143
H      -2.341208   -2.323831   -2.185696
