23

C      -0.060270    1.590092    0.007858
C      -0.126192    0.068229   -0.031967
C       0.231616   -0.744354    1.248424
C      -0.930827   -1.715999    0.910524
C      -1.518204   -0.625875   -0.025706
C       1.360894    2.132470    0.111969
C       2.246121    2.081097   -1.156550
O       2.411699    3.513241   -1.158598
C       1.552321    3.661445   -0.010380
H      -0.539117    2.003467   -0.891446
H      -0.648586    1.952314    0.863108
H       0.464131   -0.305310   -0.878207
H       1.238942   -1.160302    1.330647
H       0.021482   -0.165378    2.154639
H      -0.580012   -2.586387    0.348540
H      -1.554689   -2.067231    1.735609
H      -2.262042   -0.009676    0.490783
H      -1.936395   -0.941203   -0.984955
H       1.859573    1.713376    0.990677
H       3.205793    1.557847   -1.064758
H       1.736079    1.726324   -2.063427
H       0.638559    4.222785   -0.250857
H       2.063193    4.158698    0.823425
