14

C      -0.022393    1.523616   -0.005550
C      -0.005903    0.020052    0.004074
C       0.024904   -0.702236   -1.183223
F       0.040235   -0.070159   -2.354010
C       0.039839   -2.091475   -1.152048
F       0.069342   -2.780854   -2.290333
C       0.023529   -2.734183    0.077036
N      -0.006050   -2.068341    1.231891
C      -0.020005   -0.735986    1.180073
H       0.863948    1.928521   -0.504948
H      -0.894655    1.908993   -0.543626
H      -0.049067    1.913791    1.014267
H       0.035107   -3.820217    0.109066
H      -0.044177   -0.218476    2.136548
