19

C       0.068035    1.442368    0.045734
C       1.350685    0.665414   -0.047855
C       1.767885    0.063491    1.298581
C       0.375612   -0.663514    1.350609
C       0.035820   -0.076441   -0.039031
C      -0.319836   -0.807715   -1.267649
C       0.623746   -0.928247   -2.206610
C       2.017998   -0.354714   -2.063933
O       2.136243    0.769054   -1.183715
H      -0.221649    1.941184    0.968315
H      -0.202575    1.961721   -0.866031
H       2.590321   -0.648547    1.195880
H       2.008494    0.767336    2.101708
H       0.470245   -1.751010    1.346979
H      -0.296932   -0.370552    2.162487
H      -1.311869   -1.231474   -1.405416
H       0.432001   -1.466822   -3.131127
H       2.708810   -1.154657   -1.745489
H       2.377838   -0.000462   -3.035470
