19

O      -0.051158    1.449143    0.342173
C       0.040448    0.076156    0.084373
C       0.762036   -0.158414   -1.230350
O       1.172809    0.771071   -1.886763
C       0.747409   -0.677444    1.230792
O       0.671011   -2.038100    0.852033
C       2.142003   -0.093347    1.613945
C       1.488612    0.597545    2.841368
C       0.225231   -0.283088    2.642947
H       0.378719    1.880273   -0.414997
H      -0.962862   -0.374566   -0.014373
H       0.893542   -1.207902   -1.544383
H       1.091814   -2.566585    1.537119
H       2.832741   -0.895255    1.894690
H       2.633850    0.545329    0.876052
H       2.011117    0.498388    3.794701
H       1.280716    1.650200    2.651393
H      -0.748524    0.208697    2.691197
H       0.210428   -1.158346    3.301580
