21

C       0.028839    1.530388   -0.047868
C      -0.026066    0.012054   -0.043803
O       0.697037   -0.468517   -1.158358
C       0.706654   -1.875732   -1.250354
C       1.478239   -2.264434   -2.505304
C       1.555995   -3.789890   -2.691510
O       0.262340   -4.391450   -2.744841
C       2.359775   -4.138865   -3.866629
C       2.984982   -4.403730   -4.858666
H       1.064353    1.877011    0.014124
H      -0.410015    1.927501   -0.967643
H      -0.524958    1.934882    0.804632
H       0.404148   -0.388094    0.890450
H      -1.071391   -0.338487   -0.089137
H       1.183672   -2.318200   -0.357257
H      -0.318059   -2.274376   -1.296921
H       0.999563   -1.815278   -3.383362
H       2.493157   -1.856360   -2.452615
H       2.023157   -4.229866   -1.800878
H      -0.117365   -4.180940   -3.605504
H       3.548006   -4.652370   -5.724333
