18

C      -0.389490    1.441163    0.217068
C       0.239711    0.073602   -0.051541
N       0.802610   -0.532547    1.146114
C       0.155877   -1.109917    2.192517
C       1.181397   -1.452509    3.050189
O       1.056052   -2.064277    4.237459
C       2.277296   -2.316310    4.931364
N       2.362503   -1.078806    2.506024
N       2.125859   -0.515148    1.342841
H       0.353326    2.130270    0.627355
H      -0.775817    1.861667   -0.716008
H      -1.219217    1.365854    0.925780
H      -0.494719   -0.619699   -0.473726
H       1.070570    0.157448   -0.754858
H      -0.911562   -1.231083    2.240049
H       2.807950   -1.383452    5.146515
H       1.992116   -2.810551    5.861002
H       2.936872   -2.964238    4.345483
