19

O       0.140353    1.404187   -0.196399
C       0.039767    0.017912   -0.035525
C       0.005649   -0.657478    1.368524
C      -1.465713   -0.162664    1.509862
C      -1.352910   -0.694338    0.045934
C      -2.429543   -0.701355   -1.022774
C      -3.640004   -1.405179   -0.613507
C      -4.623176   -1.990915   -0.245681
C      -0.575535   -1.903365    0.641233
H      -0.384120    1.842667    0.481293
H       0.742680   -0.417019   -0.751993
H       0.783807   -0.644335    2.131721
H      -2.110656   -0.735590    2.179857
H      -1.642741    0.908818    1.652901
H      -2.673851    0.336753   -1.285623
H      -2.026256   -1.158033   -1.936537
H      -5.498631   -2.505750    0.063597
H       0.095147   -2.440451   -0.036281
H      -1.161080   -2.588257    1.256846
