20

O       0.133183    1.316871   -0.360565
C       0.010003   -0.066511   -0.049115
C       0.781102   -0.428930    1.227745
C       0.333486    0.294498    2.475657
C      -0.801103    0.958902    2.716817
C      -1.980538    1.200738    1.802384
N      -2.381914    0.044566    0.995074
C      -2.579324    0.250283   -0.442588
C      -1.430491   -0.544104    0.058287
H       0.291239    1.789363    0.464068
H       0.464431   -0.606725   -0.890914
H       0.709751   -1.514285    1.387921
H       1.848028   -0.224146    1.068410
H       1.059362    0.258556    3.286409
H      -0.897015    1.424374    3.695758
H      -2.844883    1.469983    2.420851
H      -1.774083    2.086705    1.178307
H      -3.446710   -0.238385   -0.878897
H      -2.341830    1.231673   -0.846711
H      -1.495935   -1.632956    0.017235
