18

C      -0.261207    1.467500    0.040986
C      -0.065530   -0.042158   -0.040347
C       1.143036   -0.489414   -0.931400
C       1.950141   -0.684482    0.349580
C       3.300226   -1.142355    0.658919
O       2.963789    0.258804    0.715532
C       0.678300   -0.659373    1.204706
O       0.758829    0.051148    2.405207
H       0.686505    1.985875    0.221431
H      -0.678407    1.855268   -0.894031
H      -0.941495    1.727784    0.856937
H      -1.012295   -0.534889   -0.277081
H       0.967311   -1.426199   -1.467317
H       1.541988    0.253486   -1.626233
H       3.504811   -1.607282    1.622293
H       3.981943   -1.414900   -0.145215
H       0.303029   -1.665203    1.424911
H       1.529084    0.630495    2.319211
