21

C      -0.675521    1.189165    0.061066
C      -0.314324   -0.264368   -0.277599
C       0.823561   -0.352471   -1.304934
N      -0.035069   -1.061458    0.927896
C       0.953236   -0.739165    1.650534
N       1.245827   -1.468371    2.795899
C       2.304368   -1.187197    3.642553
C       2.414653   -2.129227    4.827714
O       3.067711   -0.266028    3.442059
H       0.184925    1.729640    0.470215
H      -1.009173    1.721075   -0.835816
H      -1.480806    1.223771    0.800584
H      -1.200444   -0.726848   -0.728091
H       1.731268    0.139192   -0.938573
H       1.067108   -1.396678   -1.521459
H       0.533948    0.134509   -2.241746
H       1.656232    0.082743    1.497012
H       0.628689   -2.243508    2.992023
H       2.547640   -3.163040    4.491726
H       3.270489   -1.832383    5.432465
H       1.506890   -2.092635    5.439248
