20

C       0.089479    1.574712   -0.015775
C       0.030952    0.031129    0.041394
C       0.863039   -0.494374    1.233367
C      -1.433795   -0.493139    0.079989
C      -2.252682   -0.055496    1.313248
C      -3.609474   -0.587284    1.271072
C      -4.721642   -1.038331    1.211467
C       0.632102   -0.492667   -1.198628
N       1.102227   -0.904255   -2.171184
H       1.119481    1.915414   -0.149435
H      -0.507366    1.961150   -0.846433
H      -0.288454    2.006381    0.914915
H       0.490964   -0.076980    2.172885
H       0.818039   -1.585132    1.294898
H       1.911197   -0.202444    1.128557
H      -1.951395   -0.156265   -0.823545
H      -1.416741   -1.586669    0.039134
H      -1.763672   -0.393365    2.234590
H      -2.298061    1.038430    1.371745
H      -5.707006   -1.431643    1.169788
