15

C      -0.042933    1.461009    0.010385
O       1.168207    0.700263   -0.005516
C      -0.080180   -0.003160    0.002830
C      -0.380175   -0.854232    1.243371
C      -0.603200   -2.228451    0.662312
C      -0.616171   -2.221247   -0.670362
C      -0.404353   -0.840804   -1.240763
H      -0.243468    2.004251    0.934066
H      -0.261348    2.014189   -0.903288
H       0.460957   -0.806807    1.944602
H      -1.266110   -0.494406    1.784385
H      -0.746884   -3.104948    1.283886
H      -0.772018   -3.090989   -1.298460
H      -1.300613   -0.475244   -1.760510
H       0.422976   -0.785714   -1.957680
