16

O       0.011800    0.017784   -0.453258
C      -0.024423    1.172628   -0.119327
C      -1.325895    1.915076    0.150668
C      -1.230372    2.938577    1.262912
C      -0.517616    2.622474    2.561807
C       0.113655    3.546661    1.543415
N       1.228466    3.112967    0.749289
C       1.301172    1.970748   -0.000597
O       2.316186    1.595643   -0.546293
H      -1.581230    2.428752   -0.788383
H      -2.110100    1.173531    0.329389
H      -2.083129    3.605958    1.334197
H      -0.908316    3.047193    3.479699
H      -0.070775    1.639095    2.672710
H       0.165327    4.605153    1.771733
H       2.120073    3.565954    0.897848
