16

O      -0.351177    1.744510    0.759050
C      -0.135704    0.494689    0.173948
C       0.455676   -0.674100    1.059292
C      -0.839587   -1.445180    0.808956
O      -1.917174   -0.600846    1.275155
C      -1.392477   -0.378261   -0.040146
C      -2.382915   -0.377933   -1.173995
C      -1.738816   -0.603968   -2.467776
N      -1.211944   -0.784961   -3.479602
H      -0.934963    1.593108    1.513762
H       0.440332    0.653753   -0.740167
H       1.338878   -1.135185    0.611921
H       0.654759   -0.422092    2.103392
H      -1.027630   -2.511965    0.796787
H      -3.135962   -1.153366   -0.999158
H      -2.910103    0.583801   -1.203738
