14

N       0.058493    1.273155    0.001116
C      -0.018824    0.011686   -0.060471
N      -1.239119   -0.655733   -0.032290
C      -1.506158   -2.103565   -0.025580
C      -3.031767   -1.767633   -0.005479
C      -2.599775   -0.287382    0.020029
O      -3.151183    0.765858    0.071891
C      -1.013019   -2.828865   -1.196083
N      -0.610591   -3.406769   -2.112008
H       1.032286    1.569053   -0.042387
H       0.817932   -0.692671   -0.146231
H      -1.151593   -2.603748    0.881271
H      -3.576638   -2.059243   -0.903657
H      -3.564237   -2.106032    0.883764
