14

O      -0.470004    0.107372    0.000732
C      -0.122544    1.257280    0.006799
N       1.172591    1.747286   -0.000523
C       2.396192    1.083831   -0.015822
N       2.424381   -0.247030   -0.027754
C       3.639357   -0.795237   -0.041966
C       4.808781   -0.044103   -0.044486
C       4.645741    1.337334   -0.031153
N       3.448631    1.917399   -0.016738
H      -0.834526    2.107944    0.019608
H       1.277549    2.751897    0.007129
H       3.669390   -1.882562   -0.051752
H       5.787678   -0.505743   -0.056154
H       5.503384    2.006293   -0.032045
