16

O       0.143833    1.402330   -0.225329
C       0.024244    0.031247    0.012975
C       0.234488   -0.577627    1.449681
C      -1.106348   -1.303548    1.303307
C      -2.230241   -0.279681    1.153135
C      -2.187334    1.010809    1.782609
N      -2.099287    2.062551    2.261370
C      -1.351744   -0.657032   -0.041342
O      -1.910313   -1.237551   -1.154627
H      -0.344672    1.884856    0.453038
H       0.684702   -0.463933   -0.704315
H       1.095449   -1.245109    1.506689
H       0.289086    0.149943    2.263740
H      -1.339904   -2.309156    1.627966
H      -3.219461   -0.719639    1.081976
H      -2.197486   -0.537750   -1.753440
