16

O       0.760524    0.991229   -1.440755
C       0.357984    1.419777   -0.376411
N       1.080448    1.445260    0.770397
C       2.482913    1.020682    0.802044
C       3.451571    2.045804    0.287920
C       3.633430    2.441743   -1.025494
N       4.600410    3.386716   -1.006066
N       5.077676    3.642079    0.227604
C       4.378256    2.828664    1.013865
H      -0.664948    1.821676   -0.236579
H       0.704714    1.945212    1.560396
H       2.725463    0.759428    1.835578
H       2.543173    0.106534    0.205721
H       3.136575    2.126159   -1.928626
H       4.983232    3.890140   -1.788426
H       4.565627    2.823389    2.078799
