23

C      -1.113468    0.947870   -0.109318
C       0.024318   -0.042535    0.082387
C       1.296940    0.098735   -0.800451
C       2.159939   -0.228865    0.449206
C       2.853923   -1.618801    0.464558
C       4.181956   -0.913549    0.074468
C       3.554343    0.410078    0.589451
O       3.726904    1.601168   -0.142430
C       0.936639    0.091459    1.335566
H      -0.748284    1.979482   -0.046527
H      -1.590641    0.823290   -1.088205
H      -1.887641    0.820778    0.656227
H      -0.361219   -1.066318    0.016809
H       1.393607   -0.559876   -1.668679
H       1.454559    1.131896   -1.122964
H       2.895076   -2.043679    1.472625
H       2.466779   -2.378515   -0.218941
H       5.110296   -1.262598    0.533715
H       4.309680   -0.869023   -1.010710
H       3.794455    0.561939    1.653920
H       4.616685    1.931126    0.015983
H       0.968503    1.125295    1.698956
H       0.743411   -0.571750    2.184401
