15

O       0.038476    1.375135    0.640880
C       0.035049    0.080946    0.089300
C       0.409074   -0.990915    1.136945
N      -0.917732   -1.680354    1.005726
C      -1.933529   -1.172367    1.985317
C      -2.417942   -0.138893    0.952527
O      -3.287135    0.677755    0.899894
C      -1.345165   -0.641381   -0.022193
H      -0.358101    1.984463    0.008386
H       0.618132    0.033387   -0.839319
H       1.234539   -1.646814    0.849664
H       0.609992   -0.572624    2.128005
H      -2.684976   -1.927947    2.240362
H      -1.526872   -0.753788    2.912805
H      -1.674681   -0.976324   -1.009358
