20

C      -0.062149    1.622640    0.040040
C      -0.023123    0.102616   -0.018740
C      -1.334561   -0.623866    0.412628
C      -0.453718   -1.330294    1.459305
O      -0.576637   -2.257436    2.211726
N       0.662390   -0.541548    1.149016
C       1.939461   -1.135041    0.764950
C       1.709855   -1.524639   -0.716291
C       0.736197   -0.447645   -1.258638
H       0.948046    2.043360   -0.002846
H      -0.628626    2.024834   -0.807300
H      -0.534793    1.967675    0.964252
H      -2.128906    0.015346    0.804747
H      -1.759011   -1.316778   -0.317838
H       2.745252   -0.400798    0.874052
H       2.159226   -1.987634    1.410801
H       2.637172   -1.578881   -1.292367
H       1.242743   -2.514437   -0.753614
H       0.057590   -0.848342   -2.016180
H       1.295203    0.366654   -1.730872
