19

C      -0.028897    1.513879    0.116964
C       1.519018    1.406634    0.003995
C       2.070687    1.032249    1.379155
O       1.164689    0.157374    2.058870
C       0.509253   -0.755953    1.188358
C       1.503983   -1.741704    0.558826
O       2.113174   -1.030772   -0.526700
C       1.294414    0.086570   -0.819529
C      -0.044668   -0.020772   -0.065920
H      -0.434228    1.918453    1.046509
H      -0.477898    2.024884   -0.737759
H       2.087970    2.219868   -0.451290
H       3.058890    0.563088    1.274841
H       2.170410    1.915436    2.018407
H      -0.256128   -1.251028    1.790350
H       2.276451   -2.047742    1.270511
H       0.991827   -2.639224    0.181552
H       1.258326    0.239203   -1.900119
H      -0.902458   -0.527808   -0.511896
