15

N      -0.104371    1.152030    0.540365
C      -0.004841    0.047036   -0.058882
O       1.170213   -0.632531   -0.193437
C       1.339869   -1.522980   -1.306066
C       0.181755   -2.483611   -1.410145
C      -0.478276   -2.950289   -0.125340
C      -1.109111   -1.877708   -0.969468
O      -1.116716   -0.524709   -0.570055
H       0.822967    1.473043    0.810265
H       1.435761   -0.937795   -2.230816
H       2.290248   -2.029394   -1.118499
H       0.194755   -3.141569   -2.272892
H      -0.955458   -3.923540   -0.117804
H      -0.019811   -2.658001    0.812374
H      -2.034896   -2.082622   -1.491406
