16

O       0.144911    1.320607   -0.087197
C       0.083296   -0.044800   -0.056046
C       0.411358   -1.020379    1.131287
N      -0.985554   -0.895549    1.665449
C      -1.162307   -0.973535    0.176344
C       0.041430   -1.938894   -0.075427
C       0.709147   -0.981109   -1.109807
C       0.183480   -0.957999   -2.460136
C      -0.260388   -0.949619   -3.577777
H      -0.348196    1.649715    0.675597
H       1.301840   -1.051118    1.760080
H      -1.279454   -1.770790    2.106975
H      -2.130846   -0.952138   -0.321451
H       0.014190   -3.026404   -0.090083
H       1.804392   -0.998369   -1.105161
H      -0.648790   -0.934321   -4.565844
