21

C       0.016331    1.510783   -0.025534
C      -0.002710    0.054559   -0.017030
C      -0.016661   -1.149791   -0.014605
C      -0.038806   -2.613387    0.006702
C       0.833442   -3.180666    1.151389
C       0.615201   -4.689011    1.306140
C      -0.845251   -5.000494    1.664104
C      -1.812117   -4.191202    0.839626
C      -1.461682   -3.143130    0.096934
H       0.663596    1.905844    0.765540
H       0.386769    1.900910   -0.980210
H      -0.986291    1.923600    0.132867
H       0.389392   -2.964406   -0.946865
H       1.885524   -2.951431    0.955915
H       0.562630   -2.668083    2.082026
H       0.871222   -5.189230    0.362996
H       1.288144   -5.094743    2.068933
H      -1.049629   -6.070303    1.529792
H      -1.024363   -4.802589    2.731710
H      -2.855637   -4.497881    0.864307
H      -2.206210   -2.607533   -0.485140
