18

C      -0.080708    1.244370   -0.379014
C       1.290386    0.975909    0.136810
N       0.306442   -0.095840    0.049757
C      -0.208330   -0.638834    1.288879
C      -1.064541    0.181937    2.299622
C      -2.381401   -0.043373    1.479583
O      -3.138626   -0.565009    2.609788
C      -1.796823   -1.113218    2.769591
C      -1.568838   -1.359735    1.247318
H      -0.736799    1.830825    0.259801
H      -0.258669    1.362309   -1.444218
H       2.135422    0.899670   -0.541846
H       1.530382    1.374271    1.121706
H       0.594662   -1.224148    1.750331
H      -0.824023    1.043599    2.922603
H      -2.894759    0.603662    0.770726
H      -1.585787   -1.759101    3.620867
H      -1.880868   -2.228277    0.668904
