16

C      -0.190324    1.558895    0.028016
C      -0.062996    0.066024    0.014866
C      -0.039399   -0.754761   -1.098046
N      -0.183320   -0.512121   -2.468391
N       0.097039   -2.028472   -0.630427
N       0.181792   -2.109375    0.701545
C       0.072814   -0.839854    1.109505
C       0.110898   -0.491847    2.537455
O       0.251082   -1.268547    3.452272
H       0.502173    2.019370    0.738964
H       0.038316    1.979766   -0.957571
H      -1.199764    1.892019    0.296702
H       0.647654   -0.734246   -3.006399
H      -0.443680    0.447920   -2.652386
H       0.108795   -2.872833   -1.180116
H      -0.006518    0.599085    2.729333
