17

C       0.058427    1.574309   -0.014812
C       0.036252    0.045619   -0.100212
C      -1.370657   -0.558346    0.023391
C      -2.306390   -0.207766   -1.154152
C      -1.295661   -2.066903    0.175180
O      -0.303655   -2.739375    0.054080
C      -2.586174   -2.725221    0.504057
N      -3.590984   -3.230449    0.773351
H       1.087552    1.943245   -0.049413
H      -0.483911    2.043656   -0.841235
H      -0.388316    1.927825    0.921299
H       0.483026   -0.287217   -1.044039
H       0.666310   -0.375131    0.690216
H      -1.849660   -0.190075    0.944056
H      -3.286080   -0.681124   -1.045191
H      -2.462760    0.871843   -1.201363
H      -1.869917   -0.533146   -2.103932
