20

C       0.471366    1.538493   -0.171221
C       0.063840    0.083168    0.030366
C       0.687458   -0.944333   -0.965471
C       1.410805   -1.653318    0.220063
C       2.862280   -1.305452    0.409657
C       3.057666   -0.445640    1.410169
C       1.772331   -0.053304    2.106256
C       0.680268   -0.714557    1.237717
H       1.559608    1.655607   -0.198751
H       0.077204    1.911498   -1.123381
H       0.080501    2.185230    0.622275
H      -1.029280    0.026406    0.041936
H      -0.050111   -1.571499   -1.473433
H       1.351193   -0.514497   -1.722013
H       1.225117   -2.730191    0.292943
H       3.646005   -1.718721   -0.217708
H       4.024719   -0.062884    1.720579
H       1.753452   -0.424882    3.140068
H       1.655213    1.034870    2.177758
H      -0.089338   -1.194259    1.845160
