15

C      -0.023154    1.420172    0.084284
N       0.023624   -0.021383   -0.023125
C      -0.099208   -0.772805   -1.122900
C       0.015254   -2.101368   -0.717724
C      -0.030767   -3.348360   -1.422923
O       0.096358   -4.428308   -0.851293
C       0.210879   -2.005955    0.697844
O       0.371715   -3.036614    1.522220
N       0.216636   -0.754564    1.119981
H       0.917386    1.793665    0.497333
H      -0.182000    1.844714   -0.908160
H      -0.840284    1.718037    0.746315
H      -0.255504   -0.334478   -2.096819
H      -0.187052   -3.313526   -2.519096
H       0.325715   -3.833311    0.953130
