23

C      -0.112797   -1.241966    0.020891
C      -0.080120   -0.039950    0.014270
C      -0.016597    1.416907    0.019310
C       1.421564    1.981757   -0.027566
C       2.154945    1.597225   -1.323224
C       3.573032    2.182655   -1.370751
C       3.559098    3.706270   -1.183488
C       2.825133    4.101105    0.106109
C       1.409592    3.508696    0.151985
H      -0.153392   -2.302761    0.025802
H      -0.585598    1.810635   -0.834406
H      -0.521006    1.794141    0.918803
H       1.973079    1.543856    0.816812
H       2.183716    0.507298   -1.422786
H       1.578424    1.974756   -2.181131
H       4.179678    1.725458   -0.576663
H       4.055654    1.919557   -2.318832
H       4.582110    4.099164   -1.174103
H       3.054889    4.170844   -2.042625
H       3.395568    3.737266    0.972032
H       2.779438    5.191930    0.201186
H       0.801610    3.957617   -0.647389
H       0.919964    3.771540    1.097908
