17

C      -0.187592    1.355869    0.065206
O       0.042131   -0.030956   -0.013417
C       0.638199   -0.553904    1.149802
C       0.823760   -2.059038    0.939964
C       1.421179   -2.721655    2.134183
N       2.661288   -3.200903    2.186071
N       2.707756   -3.657328    3.430655
N       1.594284   -3.488472    4.127022
N       0.763082   -2.891754    3.314614
H       0.749750    1.918406    0.201226
H      -0.650629    1.663990   -0.875200
H      -0.863991    1.611476    0.895968
H       1.613333   -0.073815    1.340110
H       0.005603   -0.373214    2.033833
H      -0.154711   -2.500767    0.727598
H       1.466953   -2.229707    0.073692
H       3.522893   -4.108006    3.818784
