17

O       0.015905    0.017949   -0.254829
C       0.000883    1.194920   -0.070369
C      -1.130205    2.227322    0.302897
C      -0.002802    3.110087    0.888358
C       0.754473    2.850854    2.207272
C       1.875832    3.072541    1.174632
C       1.039309    4.179285    0.388701
C       1.221847    3.477711   -0.965386
C       1.068191    2.319127    0.051778
H      -1.608109    2.634233   -0.593684
H      -1.907334    1.871326    0.983369
H       0.644136    3.601252    2.995996
H       0.683315    1.841452    2.627090
H       2.959356    3.083399    1.320985
H       1.048968    5.249764    0.614717
H       0.417412    3.608225   -1.695556
H       2.196544    3.564217   -1.453791
