20

C       0.016789    1.601234    0.078764
C      -0.004002    0.073016   -0.001999
C       0.703962   -0.589526    1.179747
C       0.700593   -2.111819    1.131283
O       0.173583   -2.724987    0.228496
C       1.396094   -2.824439    2.280378
C       1.349791   -4.340744    2.166032
O       2.031523   -4.867298    3.295785
H       1.042494    1.987196    0.090572
H      -0.495834    2.048739   -0.778178
H      -0.479870    1.960485    0.987305
H      -1.036482   -0.289479   -0.046957
H       0.466078   -0.262990   -0.932403
H       1.749606   -0.255782    1.248702
H       0.249365   -0.281374    2.132653
H       2.439135   -2.485691    2.333839
H       0.940840   -2.507125    3.227777
H       0.303598   -4.675741    2.128303
H       1.820276   -4.653723    1.223270
H       2.009983   -5.826626    3.235238
