20

O       0.683765    0.774916   -0.720237
C       0.193541   -0.346066   -0.029309
C       0.291658   -0.454124    1.517485
C      -0.123372    0.812706    2.319127
C      -1.548718    0.222419    2.538086
C      -1.210949   -0.937959    1.572382
C      -1.323377   -0.579721    0.082667
C      -2.371227    0.185883   -0.632364
N      -2.175507   -1.254527   -0.887671
H       0.278376    1.560325   -0.336929
H       0.683121   -1.209896   -0.494619
H       1.126656   -1.027332    1.919780
H       0.450978    0.974426    3.233288
H      -0.090970    1.748613    1.750101
H      -1.696261   -0.122059    3.564818
H      -2.398593    0.853306    2.262549
H      -1.513235   -1.951940    1.833986
H      -3.304577    0.439204   -0.136384
H      -2.043670    0.896885   -1.387585
H      -1.667201   -1.385540   -1.760742
