20

O      -0.124788    1.469069   -0.202524
C       0.033693    0.083429    0.085106
C      -1.340545   -0.546819   -0.010704
C      -2.025915   -0.798288   -1.397771
C      -1.074100   -2.022532   -1.598530
C      -1.525811   -2.098288   -0.104130
C      -2.935830   -1.776584   -0.634457
C      -4.276511   -1.677985   -0.048623
N      -3.946773   -2.700759   -1.093342
H       0.730361    1.896185   -0.097254
H       0.752793   -0.380191   -0.603457
H       0.420324   -0.066353    1.106664
H      -1.999658   -0.060651    0.716142
H      -2.317997   -0.048242   -2.133624
H      -1.444769   -2.819225   -2.246697
H      -0.023168   -1.813128   -1.798290
H      -1.251994   -2.847983    0.638828
H      -4.493296   -2.093853    0.931780
H      -4.908505   -0.839801   -0.332553
H      -4.325581   -2.406944   -1.991307
