23

C      -2.106403   -1.249414    0.283585
C      -0.887713   -0.308685    0.257971
C      -1.369352    1.151443    0.247587
C       0.123774   -0.563726    1.394909
O       1.003098    0.537853    1.415827
C      -0.471218   -1.034770    2.752069
O      -0.088439   -2.396874    2.474996
C       0.815401   -1.963942    1.431925
C       0.918388   -2.905865    0.251318
H      -2.827450   -0.929332    1.043401
H      -2.621754   -1.215205   -0.681152
H      -1.848909   -2.287237    0.499989
H      -0.336740   -0.482466   -0.676227
H      -1.878284    1.403418    1.185570
H      -0.541297    1.848256    0.117049
H      -2.086526    1.301394   -0.566150
H       1.677798    0.371597    2.082723
H       0.078338   -0.619288    3.611245
H      -1.545093   -0.936033    2.931981
H       1.828231   -1.830761    1.857190
H      -0.034130   -3.050316   -0.260424
H       1.645723   -2.517189   -0.469239
H       1.274524   -3.883509    0.592161
