20

C      -0.069004    1.586793   -0.019376
C       0.039393    0.065171   -0.054629
C       0.621409   -0.484690   -1.368946
C       2.150583   -0.332822   -1.467830
C       2.107530   -1.624435   -0.626474
O       0.796197   -1.924111   -1.212894
C       1.859493   -1.387151    0.850738
C       2.104456   -0.058100    1.478930
N       0.743760   -0.473191    1.134978
H       0.904072    2.071954   -0.146922
H      -0.728202    1.942875   -0.817649
H      -0.485346    1.912734    0.937973
H      -0.973161   -0.354087    0.013713
H      -0.006323   -0.233342   -2.229239
H       2.503601   -0.543114   -2.478506
H       2.639216    0.563432   -1.086816
H       2.836152   -2.415359   -0.818931
H       1.881903   -2.284013    1.467610
H       2.294911   -0.000899    2.548195
H       2.610861    0.709132    0.902208
