21

C      -0.001079    1.439210    0.255873
N      -0.077945    0.007078   -0.025411
C      -1.421135   -0.570818   -0.159129
C      -2.280660    0.005480   -1.306329
C      -1.206812   -2.097519   -0.375020
O      -2.407752   -2.801841   -0.563266
C      -2.832451   -3.577144    0.547061
C      -2.135569   -0.367935    1.118688
N      -2.708754   -0.204299    2.108904
H       1.052365    1.716474    0.349980
H      -0.458046    2.088635   -0.507253
H      -0.486878    1.648103    1.213357
H       0.435221   -0.202934   -0.875814
H      -1.731786   -0.095753   -2.248873
H      -3.215907   -0.551112   -1.390663
H      -2.510085    1.060914   -1.145946
H      -0.609056   -2.206064   -1.291222
H      -0.618246   -2.491616    0.461486
H      -3.757738   -4.073212    0.245415
H      -2.087419   -4.343726    0.804344
H      -3.029932   -2.960474    1.431442
