20

C      -0.048719    1.429454   -0.012732
O       0.105029    0.018145   -0.015158
C       0.698086   -0.559510    1.108537
C       2.096093   -0.033409    1.404852
O      -0.138232   -0.286936    2.274793
C      -0.788344   -1.448585    2.538511
N      -0.486619   -2.499832    1.903539
C       0.593428   -2.114750    0.973318
C       0.335585   -2.638084   -0.436153
H       0.909257    1.949880   -0.138817
H      -0.688591    1.667377   -0.865011
H      -0.531294    1.777105    0.906971
H       2.083914    1.033905    1.637070
H       2.517190   -0.559707    2.264326
H       2.743401   -0.198349    0.538387
H      -1.539434   -1.375302    3.317927
H       1.523245   -2.560331    1.349349
H      -0.596584   -2.235903   -0.835165
H       1.148373   -2.359030   -1.112893
H       0.264817   -3.728185   -0.404314
