18

O       0.092923    1.407547   -0.070369
C      -0.014618   -0.003335    0.005218
C       0.425612   -0.604836    1.409206
C      -0.906546   -1.169053    1.984745
C      -1.603835   -1.800277    0.773840
N      -3.018762   -1.208423    0.996552
C      -2.920211   -0.531071   -0.382327
C      -1.466793   -0.413542    0.103456
C      -1.991141   -0.180835    1.542518
H       1.026912    1.638781   -0.067056
H       0.524147   -0.482806   -0.823815
H       1.182521   -1.388598    1.301324
H       0.843424    0.192256    2.032247
H      -0.881465   -1.630942    2.973041
H      -1.469503   -2.778186    0.307065
H      -3.134264   -1.207675   -1.215658
H      -3.511227    0.385867   -0.461298
H      -2.315696    0.763615    1.979700
