18

C      -0.013846    1.573398    0.108333
C      -0.001953    0.074687   -0.040872
C       0.038281   -0.522274   -1.230310
C       0.001886   -2.005673   -1.494412
N      -0.786430   -2.783311   -0.541570
C      -0.436404   -2.981023    0.766037
O      -0.805519   -3.908483    1.439191
O       0.413293   -2.022043    1.255650
C      -0.047732   -0.669696    1.271971
H       0.863720    1.924655    0.665768
H      -0.025988    2.072183   -0.863477
H      -0.895242    1.909223    0.670121
H       0.113685    0.097762   -2.120482
H      -0.455994   -2.169643   -2.474414
H       1.027470   -2.400459   -1.566599
H      -1.328618   -3.546653   -0.916549
H       0.611965   -0.165507    1.986860
H      -1.060542   -0.630331    1.700533
