21

C       0.033564    1.516171    0.079151
C      -0.049294    0.023699   -0.054615
C       0.346229   -0.793118   -1.318270
C      -0.401602   -1.919441   -0.535122
C       0.498456   -2.025890    0.704315
O       0.721936   -0.626160    0.984516
C      -1.349934   -0.801127   -0.059699
C      -2.512377   -0.805062    0.869689
C      -2.688884   -0.423250   -0.594469
H       1.072428    1.849736   -0.002058
H      -0.550599    2.007383   -0.704145
H      -0.347559    1.835690    1.054466
H      -0.186677   -0.481064   -2.217311
H       1.415471   -0.919036   -1.508505
H      -0.751418   -2.839933   -1.001452
H       0.003822   -2.507372    1.556210
H       1.453907   -2.528611    0.511843
H      -2.914006   -1.759800    1.195953
H      -2.583231   -0.017171    1.613249
H      -2.883526    0.620102   -0.825095
H      -3.207849   -1.122741   -1.243004
