17

C       0.035905    1.483235    0.082926
C      -0.024143   -0.005317   -0.047674
C       0.614224   -0.953347   -1.107217
C       0.055125   -1.819822    0.044783
O       0.612839   -0.840652    1.009959
C      -1.223580   -0.975220    0.020208
C      -2.497960   -0.969021    0.735242
N      -2.433666   -1.124483   -0.753653
H       1.074101    1.827742    0.078410
H      -0.487252    1.960628   -0.752222
H      -0.432342    1.805331    1.018082
H       0.134394   -1.030336   -2.086266
H       1.703313   -0.908355   -1.157371
H       0.198438   -2.877986    0.256456
H      -2.843820   -1.851832    1.265188
H      -2.860184   -0.027034    1.139975
H      -2.688526   -0.248941   -1.206258
