16

O      -0.001648    0.315430    0.001972
C      -0.017689    1.536030    0.007370
C       1.194374    2.321886    0.379033
C       1.888557    1.906629    1.644842
N       2.487199    1.623347    0.350279
C      -1.249915    2.293024   -0.357844
C      -1.932949    1.870618   -1.627350
N      -2.523988    1.560628   -0.335415
H       1.214307    3.366905    0.084173
H       2.386018    2.669202    2.236841
H       1.438357    1.090332    2.202471
H       2.288274    0.652033    0.106407
H      -1.297230    3.334589   -0.054023
H      -2.450215    2.624950   -2.212898
H      -1.461506    1.071220   -2.191864
H      -2.299679    0.592803   -0.099840
