19

C       0.090051    1.434888    0.316566
C       0.037243    0.001590    0.064953
C      -0.000099   -1.183777   -0.143829
C      -0.064527   -2.623760   -0.386235
C      -1.444794   -3.226370   -0.115978
C      -2.551048   -2.742797   -1.028256
C      -1.484639   -4.600346    0.447040
N      -1.842908   -3.437984    1.284999
H       0.921297    1.692346    0.982360
H       0.223932    1.999189   -0.613019
H      -0.832856    1.789321    0.788746
H       0.220324   -2.834674   -1.426476
H       0.678912   -3.136037    0.239128
H      -2.352390   -3.025967   -2.068302
H      -3.507854   -3.173906   -0.725358
H      -2.636010   -1.652520   -0.983255
H      -2.312775   -5.262383    0.208025
H      -0.541777   -5.109675    0.632165
H      -1.072339   -3.205642    1.907521
