23

C       0.011497    1.343308   -0.049667
O      -0.030526   -0.048426    0.153505
C      -1.325529   -0.631634    0.050986
C      -1.795833   -0.744521   -1.402549
C      -1.233519   -1.976370    0.730923
C      -0.338907   -3.191162    0.325465
C      -1.108248   -3.639166    1.600822
C      -0.789152   -2.241543    2.201137
C      -2.381921   -3.003303    0.973209
H       1.033037    1.668625    0.164383
H      -0.233287    1.632589   -1.082384
H      -0.676762    1.874737    0.627104
H      -2.044338   -0.008932    0.613667
H      -2.777823   -1.225017   -1.450056
H      -1.885543    0.238540   -1.872961
H      -1.087256   -1.341919   -1.984057
H      -0.596818   -3.703438   -0.606151
H       0.740177   -3.050397    0.422140
H      -1.038739   -4.603884    2.104136
H       0.256361   -2.028799    2.435184
H      -1.460099   -1.879264    2.986229
H      -3.172510   -2.698703    1.666007
H      -2.794151   -3.500378    0.090039
