19

C       0.022458    1.676553    0.036239
C       1.498216    1.267285   -0.054448
C       1.772182    0.757357    1.395297
C       0.578616   -0.238938    1.449520
C      -0.649489   -0.280784    2.326655
C      -1.725279   -0.528407    1.565306
C      -1.394767   -0.603702    0.070633
C      -0.072070    0.135436    0.100777
O       1.068497    0.071893   -0.808107
H      -0.321043    2.276433    0.881736
H      -0.364040    2.050135   -0.912968
H       2.263456    1.849263   -0.567071
H       2.736650    0.256461    1.497763
H       1.728341    1.578774    2.116008
H       0.981151   -1.257477    1.366884
H      -0.654679   -0.213949    3.408644
H      -2.732011   -0.683495    1.937476
H      -1.269382   -1.646500   -0.254211
H      -2.153839   -0.145478   -0.570354
