14

C      -0.766715    1.247616   -0.388870
C      -0.096428   -0.075093   -0.068628
O       1.083456   -0.348257   -0.873845
C       1.967592   -0.483608    0.248256
C       3.117957    0.504887    0.234858
O       4.042769    0.456906    0.999511
C       0.777628   -0.145760    1.192153
O       0.625138    0.007730    2.359862
H      -0.063701    2.080018   -0.294752
H      -1.152433    1.232918   -1.412044
H      -1.602862    1.414403    0.296652
H      -0.811760   -0.906918   -0.127925
H       2.350308   -1.502182    0.391973
H       3.006856    1.293268   -0.541945
