19

O       0.175866    1.337984   -0.006325
C      -0.013706   -0.032006   -0.314030
C      -1.428131   -0.500696   -0.131994
C      -2.512698    0.255146    0.054159
C      -3.777871   -0.550304    0.219292
C      -3.285934   -2.022231    0.226183
C      -1.790890   -1.948825   -0.104643
C      -1.057473   -2.997256   -0.833482
O      -0.902725   -2.854575    0.579616
H      -0.065023    1.457769    0.918496
H       0.290841   -0.142058   -1.362972
H       0.653123   -0.682345    0.273926
H      -2.501800    1.339039    0.062231
H      -4.318228   -0.284615    1.135657
H      -4.474450   -0.358718   -0.606921
H      -3.399597   -2.478436    1.213542
H      -3.832201   -2.646816   -0.484809
H      -1.593465   -3.889091   -1.158775
H      -0.179476   -2.749324   -1.429730
