19

O       0.004579    0.073883    0.248880
C      -0.013403    1.269128    0.133955
C      -1.286205    2.148863    0.065907
C      -0.715373    3.528821   -0.040492
C       0.621269    3.547113   -0.059389
C       1.183765    4.930405   -0.223180
C      -0.078279    5.830057   -0.039948
C      -1.319911    4.896141   -0.187784
C       1.232421    2.183331    0.030299
H      -1.898966    1.844813   -0.793798
H      -1.906344    1.976548    0.955519
H       1.970136    5.168943    0.502750
H       1.639486    5.056272   -1.215713
H      -0.070023    6.263993    0.964084
H      -0.099667    6.663437   -0.746114
H      -1.806776    5.009109   -1.166991
H      -2.091681    5.113356    0.560174
H       1.881939    2.028392    0.901962
H       1.828728    1.895827   -0.846498
