19

C       0.026143    1.485212    0.100756
C       1.374387    0.804142   -0.049294
C       1.687676    0.036163    1.233231
O       0.394501   -0.634707    1.210710
C       0.091498   -0.001727   -0.040823
C      -0.376970   -0.790155   -1.233444
C       0.773844   -0.817538   -2.264436
O       1.369619    0.462654   -2.434366
C       2.174903    0.860141   -1.322297
H      -0.257369    1.919972    1.054972
H      -0.310187    2.021889   -0.780584
H       2.500571   -0.690871    1.115043
H       1.838105    0.612046    2.154014
H      -0.634689   -1.808164   -0.925990
H      -1.268473   -0.339705   -1.680729
H       1.538340   -1.546382   -1.949518
H       0.408122   -1.112702   -3.251535
H       2.535073    1.863016   -1.571860
H       3.049963    0.193172   -1.236321
