15

C      -0.011813    1.486947   -0.300196
C       0.007042    0.090851    0.337142
C      -1.368571   -0.521044    0.353331
O      -1.881615   -1.046870   -0.869255
C      -1.616255   -1.985254    0.174121
C      -0.504219   -2.891528   -0.044725
N       0.387521   -3.607392   -0.206589
C      -2.781241   -2.589248    0.794957
N      -3.706762   -3.054556    1.305335
H       0.991413    1.920232   -0.296903
H      -0.357950    1.435975   -1.336377
H      -0.673487    2.166753    0.246414
H       0.692612   -0.566862   -0.205107
H       0.364127    0.149574    1.372337
H      -2.121681   -0.003490    0.949644
