20

C      -0.001584    1.536188    0.035026
C      -0.018453    0.001125    0.010006
C       0.670328   -0.550302   -1.276972
N       0.855103   -1.993285   -1.280623
C       1.512877   -2.468977   -0.060118
C       0.834471   -1.963860    1.221939
N       0.629538   -0.507981    1.232340
C      -1.421700   -0.468439    0.009624
N      -2.510969   -0.851500   -0.043861
H       1.033752    1.891042   -0.007983
H      -0.539454    1.946880   -0.822875
H      -0.460191    1.906884    0.954148
H       0.107459   -0.255346   -2.168624
H       1.658627   -0.072750   -1.334604
H      -0.044491   -2.452858   -1.390636
H       1.540854   -3.563760   -0.079688
H       2.555232   -2.118918   -0.083771
H      -0.148237   -2.440160    1.330782
H       1.420014   -2.228668    2.108939
H       1.525966   -0.036854    1.322300
