17

C      -0.001724    1.523111   -0.000565
C       0.002431    0.016131   -0.004818
C      -0.052341   -0.703971   -1.196964
C      -0.034342   -2.096486   -1.218712
C       0.040377   -2.789405   -0.014183
C       0.090454   -2.095112    1.188656
C       0.073445   -0.695395    1.210575
N       0.189974   -0.006532    2.423577
H       0.873121    1.927214    0.523576
H       0.003311    1.918319   -1.019242
H      -0.890315    1.933786    0.500479
H      -0.108020   -0.152925   -2.131778
H      -0.076022   -2.629471   -2.161929
H       0.055210   -3.874523   -0.005691
H       0.146362   -2.637390    2.128779
H      -0.052221   -0.557098    3.234987
H      -0.266156    0.893880    2.448652
