19

C      -0.200235    1.455724   -0.264924
O       0.482733    0.244346    0.025622
C       0.855371   -0.461333   -1.119466
C       1.492832   -1.854885   -0.826687
C       1.338627   -2.352575    0.599703
O       1.596667   -3.752167    0.562486
N       0.512469   -2.417983   -1.771526
C      -0.239908   -1.254251   -1.863357
N      -1.368859   -0.910221   -2.321660
H       0.439958    2.138745   -0.844304
H      -1.120127    1.266934   -0.828350
H      -0.438672    1.920038    0.694487
H       1.460375    0.161116   -1.795240
H       2.527855   -1.986918   -1.157488
H       2.047658   -1.822068    1.251948
H       0.324361   -2.136485    0.959953
H       1.452126   -4.107952    1.443889
H       0.181050   -3.372516   -1.756431
H      -1.883060   -1.707898   -2.701590
