23

C      -0.233326    1.497874   -0.072109
C       0.095814    0.008290   -0.018826
C       1.025731   -0.490543   -1.136577
C       1.457314   -1.884962   -0.657653
C       1.568462   -1.751242    0.903331
C       0.831563   -0.436989    1.262010
C       0.979309   -2.990545    1.571153
C       1.840903   -4.241750    1.534053
O      -0.116897   -2.991783    2.084218
H       0.679124    2.103505   -0.012539
H      -0.747580    1.761113   -1.002708
H      -0.881944    1.792450    0.759660
H      -0.841401   -0.562019   -0.083506
H       0.548134   -0.511793   -2.121341
H       1.898908    0.171938   -1.210671
H       0.680792   -2.614692   -0.916625
H       2.388668   -2.231412   -1.113041
H       2.627230   -1.694826    1.178793
H       1.560974    0.328922    1.550308
H       0.148647   -0.584410    2.100979
H       2.206469   -4.438823    0.520786
H       2.725036   -4.094542    2.165922
H       1.274305   -5.098406    1.900892
