15

C      -0.051719    1.552587    0.022818
C       0.141976    0.065819    0.037063
O      -0.730068   -0.717691    0.875894
C       0.666757   -0.769296    1.138630
C       1.331976   -2.018313    0.552730
O       0.412800   -2.874558   -0.109939
C       1.186887   -1.974472   -0.914828
C       0.508801   -0.655519   -1.263517
O       0.430316   -0.178294   -2.365774
H       0.852950    2.059628   -0.325511
H      -0.864803    1.819545   -0.658601
H      -0.299400    1.909021    1.025226
H       1.002156   -0.355483    2.085386
H       2.169482   -2.491867    1.055693
H       1.864752   -2.424528   -1.634232
