16

O      -0.048931    1.373602   -0.018361
C       0.036615    0.002181   -0.024496
C       0.597607   -0.952207   -1.108981
C       0.010443   -1.878845   -0.020491
C       0.582809   -0.956835    1.086523
O      -0.302255   -0.939600    2.209817
C      -1.545504   -0.908836    1.606454
N      -2.665126   -0.892910    2.181752
C      -1.223570   -0.912222    0.143146
H       0.837810    1.744917   -0.084426
H       0.078986   -0.946869   -2.069486
H       1.683837   -0.974519   -1.241835
H      -0.023294   -2.964844   -0.008235
H       1.623297   -0.983196    1.404702
H      -2.549037   -0.898552    3.196848
H      -2.033259   -0.895644   -0.580775
