14

O       0.111182    1.295508   -0.260124
C      -0.036411   -0.088091   -0.013110
C      -1.530669   -0.380119    0.068306
N      -2.210151   -0.101154   -1.186158
N      -3.024756    0.955270   -1.363060
N      -3.422923    0.990263   -2.547864
O      -2.844685   -0.098462   -3.249651
C      -2.057288   -0.792584   -2.373101
O      -1.401300   -1.769289   -2.606133
H       1.023069    1.468483   -0.510460
H       0.405580   -0.701718   -0.809448
H       0.419165   -0.392133    0.942412
H      -1.692423   -1.431603    0.322034
H      -2.003027    0.250323    0.823653
