16

C      -0.016278    1.492227    0.010227
C       0.007826    0.040997    0.002196
C       0.029455   -1.169045   -0.004515
C       0.052421   -2.528642   -0.012038
C       0.078614   -3.738953   -0.018791
C       0.078041   -5.192141   -0.026590
C      -1.364503   -5.766740   -0.015850
C      -1.369994   -7.227364   -0.023645
N      -1.351979   -8.382659   -0.030026
H       0.999289    1.903729    0.002897
H      -0.541405    1.884458   -0.867919
H      -0.524773    1.874939    0.902251
H       0.605611   -5.567975   -0.911269
H       0.622433   -5.577401    0.843725
H      -1.898348   -5.411038    0.870839
H      -1.915210   -5.401585   -0.888269
