16

O       0.059513    1.213163   -0.687004
C      -0.042409    0.127978    0.226816
C      -1.389227   -0.425226    0.185986
C      -2.492360   -0.906834    0.162896
C      -3.801493   -1.484021    0.133390
C      -4.381082   -1.999681   -1.163070
C      -3.979048   -2.996090   -0.098670
C      -2.829563   -3.833262   -0.290797
N      -1.911195   -4.520919   -0.437312
H       0.968453    1.528895   -0.655584
H       0.673077   -0.673210   -0.018490
H       0.180678    0.450117    1.257120
H      -4.514778   -1.070577    0.840572
H      -5.442004   -1.865083   -1.336956
H      -3.751998   -1.934352   -2.041603
H      -4.777369   -3.465060    0.466270
