14

C       0.027938    1.537749   -0.163915
N       0.031202    0.082302   -0.044834
C      -1.116789   -0.500996    0.709122
C      -0.253485   -1.699879    1.194368
O      -0.626183   -1.572575    2.594454
C      -0.540120   -0.192875    2.143879
C       0.682428   -0.458089    1.184168
H       1.019010    1.875066   -0.484018
H      -0.690027    1.834313   -0.935308
H      -0.230827    2.069178    0.768046
H      -2.149010   -0.489115    0.356718
H      -0.115340   -2.688206    0.760421
H      -0.750124    0.593356    2.868257
H       1.752429   -0.396074    1.386812
