20

C       0.038963    1.497227    0.010868
C       1.352555    0.757011   -0.044832
C       2.096505    0.554942    1.293342
C       1.175717   -0.377231    2.061946
C       0.351947   -0.249237    3.357089
C      -0.935405   -0.603939    2.521060
C      -0.039425   -0.707777    1.270538
N       0.971252   -1.751482    1.557808
C       0.022194   -0.011318   -0.045564
H      -0.235909    1.983440    0.942541
H      -0.276876    2.032810   -0.877910
H       1.935142    0.832314   -0.956721
H       3.099484    0.138265    1.138688
H       2.229716    1.504485    1.825255
H       0.623988   -0.935847    4.162190
H       0.327107    0.772639    3.744446
H      -1.464492   -1.518634    2.797437
H      -1.643827    0.225630    2.471677
H       1.540866   -1.864241    0.720568
H      -0.336366   -0.487756   -0.953559
