21

C       0.055124   -1.215517   -0.069103
C       0.006006   -0.017555    0.020400
C      -0.018040    1.437032    0.128066
C       1.379835    2.070530   -0.004949
C       2.060727    1.899325   -1.406766
C       2.327578    3.381209   -1.739743
C       2.850791    3.929118   -0.379105
C       1.395870    3.613947    0.075301
C       0.974488    4.047237   -1.361178
H       0.085743   -2.273809   -0.146815
H      -0.690390    1.844360   -0.637566
H      -0.452398    1.720663    1.096160
H       2.010305    1.647687    0.784040
H       2.978269    1.307039   -1.356876
H       1.396095    1.420415   -2.132479
H       2.832081    3.599170   -2.681615
H       3.670752    3.396671    0.113380
H       3.059781    5.001141   -0.407299
H       0.959390    4.067517    0.966902
H       0.989742    5.132472   -1.485387
H       0.056088    3.638253   -1.792487
