21

C       0.106190    1.487696    0.129821
C       0.011054   -0.000625    0.007656
C      -0.016327   -0.729074   -1.114315
C      -0.142367   -2.212441   -0.848555
C      -0.102940   -2.312912    0.681430
C      -0.923737   -3.380369    1.356374
O      -0.490711   -4.694350    1.025289
C       1.158394   -1.825572    1.361124
C      -0.027291   -0.891041    1.212534
H       1.005392    1.785238    0.684018
H       0.132510    1.970684   -0.850651
H      -0.749051    1.894303    0.684763
H       0.060591   -0.321118   -2.116732
H      -1.086338   -2.617101   -1.240269
H       0.655450   -2.794772   -1.326070
H      -0.919808   -3.220655    2.447233
H      -1.966680   -3.328790    1.023093
H       0.445984   -4.746786    1.243687
H       1.363846   -2.214555    2.354949
H       2.039765   -1.622344    0.760900
H      -0.558552   -0.577280    2.106293
