16

C      -0.030519    1.544859    0.057289
C       0.135777    0.059903    0.071485
O      -1.132268   -0.689229    0.049068
C      -0.422124   -1.743173    0.712507
C       0.944390   -1.884783    0.040530
C       0.702442   -0.894976    1.185434
C       0.965705   -0.741996   -0.978232
O       0.399358   -0.907816   -2.243130
H       0.944156    2.037091    0.129076
H      -0.502551    1.854819   -0.880956
H      -0.656789    1.879846    0.888641
H      -0.982125   -2.544752    1.174368
H       1.519904   -2.801106    0.053361
H       1.187469   -0.742616    2.138349
H       1.970307   -0.329337   -1.100828
H      -0.535642   -1.093100   -2.076778
