17

O      -0.218639    1.354997   -0.324585
C      -0.090134   -0.039145   -0.088541
C       0.040321   -0.555776    1.381274
C      -1.457795   -0.125364    1.601185
O      -1.816273    1.198342    1.792632
C      -1.422113   -0.789573    0.173149
C      -0.572351   -1.907197    0.847359
C       0.285109   -2.853650    0.056673
O       0.514296   -2.799162   -1.127336
H       0.662489    1.731749   -0.411689
H       0.573012   -0.487361   -0.828303
H       0.884581   -0.452528    2.064835
H      -1.986206   -0.711302    2.359108
H      -1.372261    1.713331    1.102972
H      -2.242047   -0.936906   -0.529237
H      -1.085971   -2.470334    1.634236
H       0.720506   -3.672059    0.676127
