19

C      -0.094261   -1.298610   -0.126577
C      -0.048527   -0.098228   -0.054562
C       0.009682    1.342878    0.036066
C      -0.115339    2.083625    1.401221
C       0.575914    1.315261    2.530889
C       2.104643    1.307856    2.276086
C       2.461054    1.349949    0.768376
C       1.365343    2.110867    0.016856
O       0.778672    3.114642    0.893419
H      -0.139306   -2.357397   -0.195779
H      -0.671989    1.803772   -0.683954
H      -1.095831    2.484129    1.669612
H       0.363791    1.788147    3.494913
H       0.165471    0.300481    2.571873
H       2.523030    2.203440    2.741209
H       2.575438    0.449398    2.762744
H       3.427648    1.844527    0.630357
H       2.549348    0.344347    0.343066
H       1.690873    2.535397   -0.935827
