16

C       0.091194    1.422311    0.154596
N      -0.019540   -0.019477    0.170803
C      -1.138456   -0.616459   -0.015611
C      -2.457986   -0.046880   -0.267285
N      -3.529530   -0.734782   -0.442939
O      -3.444112   -2.102670   -0.393441
N      -2.245361   -2.773121   -0.160889
C      -1.170746   -2.085023    0.015337
C       0.090385   -2.854293    0.261603
H       0.821737    1.707085   -0.611888
H      -0.832462    1.986021   -0.027804
H       0.507482    1.750699    1.114385
H      -2.616992    1.024158   -0.322553
H      -0.116144   -3.924886    0.251285
H       0.834471   -2.606553   -0.501265
H       0.524174   -2.563298    1.222930
