19

N      -0.031044    1.346893   -0.162899
C       0.073937    0.020485    0.143176
O       1.130180   -0.494130    0.454580
C      -1.240524   -0.758507    0.069977
C      -1.011314   -2.267098   -0.029445
C      -2.313572   -3.067843    0.035952
C      -2.056007   -4.585121   -0.059875
C      -3.287070   -5.370020   -0.001011
N      -4.272288   -5.972165    0.046600
H       0.782251    1.928247   -0.042698
H      -0.914848    1.786992   -0.349157
H      -1.813993   -0.524298    0.977879
H      -1.843195   -0.395598   -0.771888
H      -0.482482   -2.491321   -0.963921
H      -0.333955   -2.567966    0.776202
H      -2.842298   -2.855293    0.972445
H      -2.988109   -2.769997   -0.775239
H      -1.536550   -4.823016   -0.995594
H      -1.396633   -4.908762    0.753915
