19

O      -0.014671    1.404635   -0.102718
C       0.029463    0.003860    0.006788
C      -1.408559   -0.566479    0.084721
C      -1.462237   -2.085595   -0.137978
C      -0.653334   -2.472953   -1.375581
O       0.678907   -1.985507   -1.293756
C       0.727819   -0.574883   -1.250217
C       0.832995   -0.371197    1.239461
O       1.276781    0.472601    1.983692
H       0.471806    1.742545    0.666879
H      -1.870559   -0.281853    1.036088
H      -1.971854   -0.052577   -0.703430
H      -1.061902   -2.620365    0.731118
H      -2.502083   -2.410501   -0.256956
H      -0.574350   -3.558626   -1.477592
H      -1.139376   -2.078850   -2.284357
H       0.236184   -0.127144   -2.128805
H       1.783178   -0.287912   -1.269948
H       1.006483   -1.448270    1.416660
