16

O      -0.262720   -0.131311    0.367225
C      -0.054117    0.947137   -0.127797
C       1.239697    1.713759   -0.086279
C       1.554164    2.700743    1.087444
C       1.800177    1.418099    1.912978
N       2.476722    1.062134    0.565048
C       3.019892    2.521624    0.655208
C       3.586649    3.116361   -0.610365
O       3.059020    3.987413   -1.255423
H      -0.850383    1.483334   -0.694829
H       1.426968    2.112464   -1.087383
H       1.027922    3.620365    1.356035
H       2.509165    1.481454    2.741785
H       0.959946    0.769632    2.148757
H       3.779612    2.596880    1.443849
H       4.573527    2.694099   -0.904177
