22

C       0.058853    1.594745   -0.636444
C      -0.426342    0.303355    0.026851
C      -1.141015    0.589615    1.366678
C      -1.380133   -0.465590   -0.884226
O      -1.962553    0.083439   -1.799527
C      -1.636396   -1.932967   -0.609759
C      -0.599361   -2.759947    0.120040
C      -3.095638   -2.265261   -0.467416
N      -2.370589   -2.633895   -1.676866
H       0.735576    2.134558    0.032985
H       0.591043    1.386593   -1.568735
H      -0.785396    2.244578   -0.879278
H       0.434337   -0.342046    0.238765
H      -0.459334    1.098482    2.054581
H      -2.006816    1.240018    1.204770
H      -1.492197   -0.325040    1.852868
H      -0.431818   -2.404504    1.141295
H      -0.936482   -3.797816    0.170469
H       0.360768   -2.750357   -0.407049
H      -3.376527   -3.090080    0.183003
H      -3.806351   -1.444994   -0.517573
H      -2.577574   -1.938776   -2.395637
