14

N      -0.028033    1.379662    0.113135
C       0.029862   -0.014421    0.025958
N      -1.048248   -0.791775    0.065502
N      -0.580597   -2.047731    0.041661
C       0.791145   -2.095036   -0.030899
C       1.533073   -3.290604   -0.059488
N       2.163239   -4.264645   -0.079228
C       1.225758   -0.774514   -0.034445
N       2.511533   -0.254836   -0.134298
H       0.469015    1.832030   -0.646783
H      -0.988289    1.702357    0.128278
H      -1.220145   -2.822388    0.039119
H       3.242393   -0.934484    0.031716
H       2.645014    0.559868    0.453326
