19

O       0.368024   -0.052206    1.538625
C      -0.067033   -1.013783    0.583926
C      -1.438905   -0.694643    0.002139
C      -1.554006   -0.259613   -1.441212
C      -1.965674   -1.650752   -1.041691
C      -2.417128   -0.067764    0.986688
O      -2.321784   -0.591756    2.307436
C      -2.271901    1.450199    1.147429
O      -1.311459    2.107769    0.822787
H       0.235314    0.824731    1.147533
H       0.664117   -1.131040   -0.229868
H      -0.106280   -1.964024    1.126804
H      -2.332588    0.450139   -1.702209
H      -0.637056   -0.131639   -2.006755
H      -1.324439   -2.476891   -1.332717
H      -3.022263   -1.896638   -1.025834
H      -3.447725   -0.259893    0.661802
H      -1.402000   -0.431484    2.575865
H      -3.126220    1.919173    1.680636
