18

C       0.210549    1.472025   -0.187105
C      -0.086321    0.013103    0.169561
N       0.632719   -0.449000    1.335437
C       2.060713   -0.746473    1.554452
C       1.653827   -1.247664    2.982556
C       0.211341   -0.879322    2.571262
O      -0.878319   -0.924406    3.077987
C       2.635040   -1.726308    0.644520
C       3.101441   -2.526405   -0.121890
H       1.272188    1.617343   -0.411584
H      -0.360299    1.768781   -1.072238
H      -0.060081    2.137621    0.637541
H      -1.147372   -0.120343    0.401493
H       0.151482   -0.641554   -0.678999
H       2.683869    0.155617    1.574389
H       1.815628   -2.312488    3.151412
H       2.062063   -0.667849    3.811576
H       3.516601   -3.238655   -0.791774
