15

O      -0.204240    0.202384    0.624912
C      -0.004093    1.204792   -0.013071
C       1.329185    1.853961   -0.118425
C       2.460408    1.551631    0.934449
C       2.853807    2.935463    0.470656
N       3.754700    3.088873   -0.415201
C       2.996810    3.350480   -1.664698
C       1.586679    2.907492   -1.249295
N       1.436764    3.343452    0.121889
H      -0.816763    1.724621   -0.566220
H       1.980833    1.442871    1.909214
H       3.200214    0.775741    0.750390
H       2.973640    4.400090   -1.990705
H       3.459748    2.757812   -2.458840
H       0.744264    3.082020   -1.915797
