23

C      -0.164138    1.545797   -0.282330
C      -0.036537    0.059039    0.002022
O      -1.332077   -0.502592    0.053050
C      -1.327259   -1.888995    0.313782
C      -2.758177   -2.360237    0.346469
O      -3.336011   -2.846096   -0.870674
C      -3.185643   -3.765918    0.224712
C      -2.196962   -4.892653    0.003701
C      -4.490105   -4.187028    0.870347
H       0.824835    2.011411   -0.329323
H      -0.672413    1.710226   -1.236494
H      -0.743594    2.038707    0.503491
H       0.561327   -0.435172   -0.782736
H       0.488804   -0.110179    0.958177
H      -0.762720   -2.428551   -0.460402
H      -0.844510   -2.094760    1.286667
H      -3.406972   -1.684340    0.907176
H      -1.304167   -4.555003   -0.524300
H      -1.892938   -5.333890    0.959234
H      -2.662095   -5.684690   -0.593424
H      -4.987426   -4.950063    0.261368
H      -4.315307   -4.614067    1.863939
H      -5.166525   -3.334941    0.969872
