18

O       0.811079    0.151069   -0.767412
C       0.025985   -0.398773    0.245959
C      -0.449038    0.461058    1.453689
C      -1.807574   -0.292113    1.386147
C      -1.466717   -0.708592   -0.069512
O      -1.881066    0.250572   -1.044666
C      -3.115459    0.002769   -1.660778
C      -4.284581    0.280880   -0.800593
N      -5.204017    0.498857   -0.135946
H       0.237058    0.746504   -1.264923
H       0.530761   -1.305563    0.593187
H       0.130879    0.404420    2.376566
H      -0.558112    1.508908    1.162024
H      -1.839179   -1.164440    2.044492
H      -2.718662    0.288988    1.526802
H      -1.735308   -1.716494   -0.409951
H      -3.172982    0.656905   -2.536574
H      -3.189215   -1.037396   -2.012326
