14

C      -0.013322   -1.179054    0.090134
C       0.038789    0.019535    0.012816
C       0.058737    1.447812   -0.108704
C      -0.942276    2.164565   -1.021775
C      -0.203842    3.421917   -1.428304
C       1.033929    3.469892   -0.929833
C       1.286908    2.284876   -0.059304
O       0.394419    2.199960    1.069581
H      -0.048483   -2.237407    0.168590
H      -1.198432    1.540031   -1.885688
H      -1.876413    2.379081   -0.490151
H      -0.666633    4.189431   -2.038013
H       1.759473    4.257527   -1.087727
H       2.277372    1.872584    0.105960
