18

C       0.082185    1.361318   -0.306459
C       1.450878    2.060341   -0.210299
C       2.597061    1.141076   -0.547720
O       3.850357    1.357263    0.114038
C       3.106012    0.180914    0.437553
C       2.512300    0.130364    1.824115
O       1.427064   -0.788895    1.907741
C       0.217096   -0.592614    1.296617
N      -0.289566    0.220038    0.488618
H      -0.690350    2.120824   -0.130891
H      -0.069038    1.051118   -1.350946
H       1.435753    2.900990   -0.914902
H       1.600910    2.495505    0.780775
H       2.696478    0.876101   -1.601199
H       3.546779   -0.753118    0.088725
H       3.247558   -0.246951    2.540203
H       2.205931    1.127366    2.151725
H      -0.413878   -1.405926    1.663795
