18

C       0.002018    1.377040   -0.131531
C       0.218144   -0.112012    0.012887
C       1.577998   -0.717792    0.059208
C       0.714327   -0.757906    1.316778
C       1.083066    0.093336    2.526340
C       2.192798   -0.474689    3.296485
N       3.067330   -0.935064    3.895064
C       0.099405   -2.080041    1.630973
O      -0.237312   -2.885178    0.796752
H       0.823391    1.963767    0.290094
H      -0.062472    1.636852   -1.193325
H      -0.929530    1.700439    0.344739
H      -0.533733   -0.729554   -0.470933
H       1.739874   -1.670311   -0.432172
H       2.436289   -0.053668    0.087983
H       1.364762    1.103923    2.219914
H       0.220992    0.203599    3.196049
H      -0.043276   -2.286198    2.715270
