21

C       0.004080    1.484987   -0.028616
N      -0.034833    0.032533    0.090050
C       0.815351   -0.477844    1.158654
C      -1.318074   -0.541651    0.017644
C      -1.857408   -1.355077   -0.958448
C      -1.151070   -1.812659   -2.197278
C      -3.191553   -1.661371   -0.553480
C      -3.426727   -1.033141    0.645844
N      -2.289062   -0.353337    0.992364
H       1.036228    1.811591   -0.198480
H      -0.603160    1.796750   -0.881494
H      -0.366250    2.014693    0.869448
H       0.520085   -0.129764    2.166578
H       0.788336   -1.569903    1.154915
H       1.848975   -0.154811    0.990953
H      -1.081336   -2.905895   -2.246981
H      -1.668912   -1.485210   -3.106733
H      -0.136282   -1.406911   -2.220309
H      -3.896840   -2.277870   -1.090841
H      -4.301955   -1.013845    1.275709
H      -2.171714    0.198113    1.823796
