20

C      -0.448307    1.548734    0.365768
C      -0.108649    0.070392    0.213335
C       0.287018   -0.465216   -1.172371
C       1.617371    0.081103   -1.607353
C       1.585395   -1.040980   -0.609415
C       1.236977   -0.538442    0.795397
C       2.221089    0.381896    1.506178
O       0.980378   -1.689672    1.592240
H       0.320988    2.197403   -0.064163
H      -1.391711    1.780445   -0.141047
H      -0.564938    1.826175    1.419663
H      -0.916949   -0.540989    0.625658
H      -0.398167   -0.914603   -1.881369
H       1.929777   -0.207355   -2.606116
H       1.939759    1.080241   -1.326055
H       2.045510   -2.004311   -0.791877
H       2.492615    1.248974    0.898608
H       1.792324    0.760789    2.442908
H       3.134248   -0.169655    1.750163
H       0.666231   -1.387556    2.451631
