20

C      -0.564589    1.497639    0.029964
C       0.124528    0.144825   -0.024292
O       1.194335    0.211320   -0.995896
C       2.203805   -0.649049   -0.657753
N       3.245244   -0.836478   -1.346846
C       1.868766   -1.317258    0.657491
C       0.793066   -0.396285    1.258235
C       1.414880    0.683684    2.144362
O       2.041154    0.020945    3.232744
H       0.131533    2.292085    0.310833
H      -0.979527    1.744535   -0.950860
H      -1.386244    1.477641    0.752720
H      -0.594633   -0.606744   -0.380547
H       3.212358   -0.274597   -2.199781
H       1.468539   -2.317418    0.456914
H       2.746438   -1.431653    1.292262
H       0.070719   -0.951909    1.862802
H       2.141986    1.274371    1.564975
H       0.635889    1.373422    2.501390
H       2.521000    0.674396    3.749540
