16

N       0.261636    1.200478    0.724270
C       0.172999    0.035713    0.224695
O       1.283899   -0.715145   -0.031425
C       1.152523   -1.825790   -0.927989
C      -0.020482   -2.726436   -0.553674
C      -1.239866   -1.885386   -0.352104
C      -1.142157   -0.586790   -0.026091
C      -2.376111    0.235148    0.153223
O      -3.490589   -0.211220    0.002438
H       1.242488    1.459584    0.843875
H       1.019859   -1.447533   -1.950168
H       2.107229   -2.352763   -0.876632
H      -0.181679   -3.472502   -1.339969
H       0.199745   -3.288594    0.365173
H      -2.231234   -2.316585   -0.461654
H      -2.196102    1.287113    0.434185
