23

C      -0.031988    1.467564   -0.240767
C       0.047905   -0.015387    0.053448
O      -1.097772   -0.705687   -0.388116
C       1.364959   -0.755310   -0.019706
C       0.664059   -0.567776    1.323557
C       1.279754    0.395963    2.325555
C       0.010950   -1.791363    1.955025
C       1.005294   -2.787112    2.546240
O       0.256464   -3.884336    3.052574
H       0.861034    2.009522    0.076556
H      -0.141433    1.627254   -1.320930
H      -0.903536    1.911873    0.250849
H      -1.084425   -0.706788   -1.351471
H       1.343878   -1.746504   -0.461667
H       2.272765   -0.191999   -0.214469
H       1.802263    1.225278    1.843560
H       0.512802    0.819879    2.984269
H       2.011143   -0.115435    2.960130
H      -0.674596   -1.473356    2.750759
H      -0.595294   -2.314126    1.213259
H       1.711145   -3.112755    1.765097
H       1.600309   -2.319140    3.346084
H       0.871647   -4.511218    3.443631
