17

O       0.416082    1.029716    0.580356
C       0.097744   -0.100954   -0.211471
C      -1.364062   -0.511673   -0.090524
C      -2.348305    0.230700   -0.995388
C      -2.235234    1.686378   -0.915828
C      -2.120871    2.883196   -0.859360
C      -1.677085   -1.907439    0.313455
N      -1.870913   -0.794356    1.256859
H      -0.149731    1.754165    0.284526
H       0.349863    0.062543   -1.271677
H       0.740320   -0.908814    0.154371
H      -2.189322   -0.082575   -2.035932
H      -3.365069   -0.069554   -0.721202
H      -2.051330    3.942223   -0.813077
H      -2.594765   -2.381446   -0.026100
H      -0.846651   -2.592785    0.463013
H      -1.103731   -0.737746    1.923110
