16

C      -0.082420    1.567956   -0.002163
C      -0.024254    0.034117   -0.000694
C       1.125789   -0.538974   -0.902364
C       2.006448   -0.702433    0.364249
C       0.735894   -0.551718    1.241489
C      -1.348378   -0.526681   -0.244842
N      -2.393138   -0.984267   -0.437580
H       0.913996    1.980939    0.181472
H      -0.437827    1.944529   -0.965615
H      -0.755018    1.934174    0.778771
H       0.851938   -1.497626   -1.346942
H       1.480746    0.127728   -1.691433
H       2.558174   -1.638913    0.459023
H       2.708505    0.124070    0.496844
H       0.788918    0.105099    2.112636
H       0.325067   -1.514855    1.550106
