18

C       0.230794    1.378408    0.180062
O       0.354840   -0.042574    0.056888
C       0.323893   -0.515722   -1.209012
O       0.200721    0.198735   -2.177819
C       0.457295   -1.992704   -1.216990
C      -0.106801   -2.755256   -2.403236
C       1.375022   -2.685229   -2.230630
C       2.258206   -1.922034   -3.191755
H       1.052497    1.884876   -0.332952
H      -0.713266    1.723474   -0.249392
H       0.262599    1.587661    1.249553
H       0.391850   -2.447849   -0.236844
H      -0.628344   -3.683270   -2.198223
H      -0.544456   -2.138034   -3.180571
H       1.835575   -3.579775   -1.818686
H       1.768508   -1.012580   -3.543469
H       3.204416   -1.639110   -2.717635
H       2.495288   -2.546706   -4.059919
