21

C       0.000686    1.522372   -0.050235
C       0.032058    0.009598    0.048290
C      -1.160486   -0.681673   -0.592962
C       1.323320   -0.754045   -0.084849
O       2.446133   -0.006154    0.375436
C       1.896019    0.010319    1.721127
C       0.625009   -0.708653    1.265826
C      -0.048241   -1.746767    2.107399
O       0.916014   -2.734214    2.462929
H       0.963221    1.960935    0.218600
H      -0.222087    1.828630   -1.078574
H      -0.773771    1.949376    0.597242
H      -1.283668   -0.331337   -1.623520
H      -1.042072   -1.768934   -0.628309
H      -2.091296   -0.464408   -0.055990
H       1.503570   -1.556651   -0.792574
H       2.500305   -0.613890    2.386174
H       1.807963    1.024893    2.127113
H      -0.460880   -1.266580    3.011187
H      -0.895061   -2.195586    1.570448
H       0.522411   -3.310078    3.125418
