16

O      -0.149926    1.387163    0.007356
N       0.042688   -0.016708    0.000218
C      -1.061433   -0.619243    0.007146
C      -2.571271   -0.423593    0.020624
C      -2.610843   -1.562732   -1.055897
C      -1.550310   -2.055985    0.005624
C      -2.592785   -1.571165    1.088666
C      -0.811588   -3.350734   -0.005848
O       0.386856   -3.460873   -0.016541
H       0.758592    1.706819    0.000955
H      -3.134103    0.505137    0.029021
H      -3.538473   -2.139765   -1.092361
H      -2.226206   -1.329306   -2.049482
H      -2.191469   -1.345526    2.077443
H      -3.519711   -2.148522    1.136211
H      -1.476942   -4.245704   -0.003764
