15

O       0.054086    1.418248    0.037339
C      -0.083062    0.043366    0.011830
C      -0.464479   -0.806765    1.184101
O      -1.414244   -0.103570    1.998589
C      -2.403764   -0.135075    0.954855
C      -3.017884    1.198338    0.610683
O      -2.586462    2.265134    0.971739
C      -1.384762   -0.741735   -0.041713
O      -1.718672   -1.696069   -0.971760
H      -0.513547    1.771967    0.739554
H       0.675889   -0.418811   -0.616651
H       0.111552   -1.597018    1.651096
H      -3.195296   -0.861529    1.185844
H      -3.919007    1.125758   -0.038401
H      -1.601884   -1.324684   -1.853274
