17

O      -0.029874   -0.009684    0.197904
C       0.167350    0.911504   -0.550245
C       1.440997    1.724950   -0.608315
C       1.154771    3.243001   -0.525538
C       2.354962    4.051020   -0.698844
C       3.360183    4.694576   -0.847786
C       4.577195    5.490155   -1.023300
C       4.907163    5.755581   -2.425136
C       5.187783    5.979088   -3.570711
H      -0.613074    1.232116   -1.281687
H       2.111287    1.400687    0.190898
H       1.928436    1.513786   -1.569661
H       0.415069    3.515399   -1.290361
H       0.690248    3.472474    0.441866
H       4.471015    6.444912   -0.489793
H       5.423031    4.978283   -0.543691
H       5.432933    6.175297   -4.585029
