19

C      -0.035153    1.483019    0.073478
C       0.150185   -0.007481    0.271243
O       1.251163   -0.477565    0.488930
C      -1.100756   -0.857171    0.165808
C      -1.485954   -1.446426   -1.250271
C      -1.623251   -2.831175   -0.607618
C      -0.303691   -3.250939   -0.038495
O       0.898346   -2.947761   -0.664460
C      -1.125260   -2.273962    0.751007
H       0.932993    1.982102    0.025071
H      -0.607483    1.680944   -0.839661
H      -0.617811    1.895190    0.905972
H      -1.950125   -0.273314    0.532719
H      -2.416363   -1.026133   -1.632849
H      -0.708033   -1.385158   -2.015243
H      -2.426231   -3.529532   -0.809288
H      -0.326096   -4.250427    0.398067
H       1.311397   -2.228754   -0.158325
H      -1.465160   -2.496933    1.756107
