19

O       0.174861    1.249002   -0.366011
C       0.021058   -0.084307    0.070843
C      -1.451700   -0.425945    0.300183
N      -2.173369   -0.144753   -0.938794
C      -2.528127   -1.153701   -1.918855
C      -2.971798   -2.483858   -1.281629
C      -4.047856   -1.704977   -0.460021
C      -3.580077   -0.400119   -1.134675
H      -0.532019    1.377980   -1.013307
H       0.447773   -0.798075   -0.655274
H       0.581836   -0.193612    1.005543
H      -1.547242   -1.462626    0.653087
H      -1.858854    0.234281    1.074249
H      -2.189254   -1.020233   -2.940466
H      -3.424330   -3.153584   -2.015808
H      -2.212463   -3.043507   -0.727228
H      -5.064804   -1.980864   -0.745906
H      -3.972052   -1.736538    0.630717
H      -4.216925    0.426116   -1.433012
