13

N       0.064194    1.275527    0.173531
C      -0.034465   -0.072120    0.052904
N      -1.137072   -0.772833   -0.013442
C      -0.696190   -2.076969   -0.059965
N      -1.583285   -3.104770   -0.188531
C       0.679254   -2.110517   -0.018290
O       1.105317   -0.769166    0.052010
C       1.611552   -3.144677   -0.031323
N       2.349298   -4.044131   -0.041164
H       0.943813    1.691205   -0.087945
H      -0.763132    1.791455   -0.079026
H      -2.523368   -2.894048    0.108158
H      -1.255326   -4.025656    0.057145
