15

C      -0.080954    1.543017    0.018435
C      -0.024324    0.026044    0.005378
C       1.225889   -0.666050   -0.632133
O       2.035488   -0.195202    0.532054
C       0.768689   -0.701892    1.140768
C       0.907371   -1.890584    0.214808
N       0.855042   -3.145012    0.272796
O       1.153171   -3.729474   -0.978042
H       0.892619    1.962500    0.277563
H      -0.378210    1.924471   -0.963811
H      -0.819944    1.893654    0.746208
H      -0.983813   -0.435662   -0.249601
H       1.657527   -0.575211   -1.625794
H       0.664549   -0.650822    2.222516
H       1.092633   -4.669397   -0.775833
