16

O      -0.030374   -0.012077   -0.219522
C       0.030378    1.197078   -0.128583
N       1.173224    1.910392    0.020582
C       2.506259    1.397423    0.100673
C       3.476609    2.398288   -0.507636
C       3.344246    2.289932    1.003442
C       2.551461    3.617806    1.029351
C       2.683766    3.726282   -0.481857
C       1.353646    3.324004    0.137956
H      -0.859605    1.856334   -0.158885
H       2.633662    0.327638    0.035211
H       4.293785    2.136776   -1.164278
H       4.038657    1.927544    1.747626
H       2.574517    4.380530    1.794512
H       2.829767    4.589234   -1.115696
H       0.480574    3.961262    0.107284
