13

C      -0.064953    1.586603    0.019510
C       0.011099    0.067879   -0.015090
C       0.718135   -0.589227   -1.240406
C       1.727462   -1.163147   -0.215111
O       2.692269   -1.877753   -0.251052
N       1.070839   -0.530190    0.813158
H       0.909293    2.029213   -0.210809
H      -0.794375    1.949562   -0.711989
H      -0.377383    1.944492    1.006410
H      -0.973520   -0.369254    0.190221
H       0.142263   -1.347874   -1.772954
H       1.152844    0.112545   -1.955152
H       1.213015   -0.559804    1.812369
