17

C      -0.001429    1.518374    0.127776
N      -0.034854    0.059870   -0.027913
C      -1.377840   -0.514632   -0.029207
C      -1.351875   -2.058025    0.169928
O      -1.912584   -1.908342    1.507872
C      -1.988712   -0.543723    1.381018
N      -2.404795    0.337542    2.165760
C      -2.261019   -0.036161   -1.090620
C      -2.944504    0.362571   -1.996049
H       1.043106    1.840801    0.127283
H      -0.540428    2.060033   -0.663866
H      -0.447813    1.784547    1.088198
H       0.412415   -0.192530   -0.905093
H      -2.018214   -2.633731   -0.474105
H      -0.347939   -2.484245    0.208141
H      -2.723032   -0.065777    3.048770
H      -3.562914    0.720424   -2.782212
