21

C      -0.333826    1.227950   -0.077325
O      -0.066788   -0.153740   -0.026525
C       0.807376   -0.529580    1.024909
C       0.129087   -0.610912    2.417219
O      -0.117088   -1.988649    2.694486
C       0.792702   -2.769558    1.958261
C       0.376749   -3.100460    0.551575
C      -1.052100   -2.972391    0.074364
C       1.335714   -1.941962    0.822706
H       0.591165    1.815192   -0.194701
H      -0.975081    1.402113   -0.944715
H      -0.856705    1.591677    0.820588
H       1.646149    0.183242    1.056923
H       0.790138   -0.187509    3.188738
H      -0.826576   -0.078263    2.446672
H       1.395325   -3.442033    2.562146
H       0.902774   -3.956919    0.133553
H      -1.094248   -2.685806   -0.979797
H      -1.566580   -3.932977    0.190191
H      -1.599452   -2.225068    0.648517
H       2.357697   -2.048397    0.480038
