19

C      -0.086793    1.492978    0.062778
C      -0.024456    0.000209   -0.016395
C       0.038756   -0.768704   -1.117541
C       0.043353   -2.269258   -0.832579
C       0.025645   -2.316386    0.690325
C       1.181812   -1.760358    1.498054
C       0.009674   -0.884801    1.180658
O      -1.085970   -1.093832    2.091627
C      -1.207452   -2.458964    1.591466
H       0.775386    1.896774    0.607358
H      -0.114719    1.949604   -0.929996
H      -0.980811    1.811859    0.611702
H       0.123683   -0.374696   -2.127309
H      -0.835313   -2.765068   -1.266804
H       0.918307   -2.767776   -1.269034
H       1.318880   -2.094040    2.522543
H       2.094647   -1.563432    0.946807
H      -2.137801   -2.583453    1.024402
H      -1.168671   -3.194444    2.404095
