15

O      -0.932977    1.087306   -0.553000
C      -0.277471    1.818602    0.150229
C       1.210113    1.775637    0.184610
C       1.964876    3.068383    0.366230
N       1.998570    2.060996    1.393405
C       1.383434    2.283762    2.713865
C       0.504243    3.442398    2.884491
C      -0.184415    4.417162    3.034328
H      -0.753891    2.573044    0.808269
H       1.631616    0.996577   -0.445877
H       2.884899    3.219640   -0.191957
H       1.371755    3.964408    0.542084
H       0.853449    1.366144    2.992711
H       2.216658    2.384286    3.420426
H      -0.806255    5.267529    3.172352
