17

C      -0.065358    1.504170   -0.038649
C      -0.064214   -0.016897   -0.143383
N      -1.394068   -0.548554    0.120389
C      -1.640211   -1.892438    0.049220
N      -2.839367   -2.446318   -0.080122
C      -2.545401   -3.777409   -0.042805
O      -3.502816   -4.711227   -0.142091
N      -1.280090   -4.106615    0.090334
N      -0.696931   -2.851852    0.140734
H       0.938761    1.898872   -0.212912
H      -0.732101    1.948064   -0.786174
H      -0.398800    1.825227    0.952113
H       0.308910   -0.328071   -1.132540
H       0.626953   -0.429067    0.603651
H      -2.165736    0.000402   -0.230030
H      -4.337521   -4.234999   -0.221132
H       0.295397   -2.772201    0.269946
