20

C       0.121967    1.308989   -0.200416
O       0.004091   -0.043568    0.215904
C      -1.273830   -0.536042    0.093087
C      -2.381655   -0.357985    1.143605
N      -2.692721   -1.807511    1.036169
C      -4.068707   -2.231079    0.839434
C      -1.714375   -1.993403   -0.027570
C      -1.848652   -1.025159   -1.196669
O      -3.061447   -0.515754   -1.676183
H       1.171765    1.586511   -0.084346
H      -0.172891    1.431277   -1.251571
H      -0.494569    1.978201    0.415792
H      -1.999630   -0.090050    2.134291
H      -3.196909    0.316862    0.858798
H      -4.586785   -1.712074    0.018608
H      -4.084254   -3.307615    0.637346
H      -4.634543   -2.062459    1.762402
H      -1.135383   -2.909505   -0.099525
H      -1.075967   -1.180961   -1.953110
H      -3.504965   -1.215793   -2.166600
