14

O       0.091207    0.398322   -0.748479
C       0.136098    1.516532   -0.305068
N       1.170268    2.001966    0.491581
C       2.560305    1.765998    0.214335
C       1.991260    3.171900    0.168852
C       1.837151    3.846617   -1.086058
C       1.696846    4.449960   -2.126846
C       1.543898    5.115060   -3.302309
C       1.406683    5.706775   -4.345896
H      -0.674975    2.258099   -0.418475
H       3.180887    1.485882    1.060554
H       2.803969    1.293376   -0.732778
H       2.187466    3.820409    1.020173
H       1.286811    6.224571   -5.265357
