18

C      -0.001671    1.336458   -0.022825
O       0.013923   -0.071252   -0.078112
C      -1.264855   -0.641903    0.112447
C      -1.118500   -2.127378    0.073835
N      -0.398623   -2.941674    1.107773
C      -0.859620   -3.971870    0.120560
C      -2.207254   -3.229014   -0.114315
O      -2.116767   -3.247252   -1.566853
C      -0.736521   -3.051953   -1.136843
H       1.023222    1.680506   -0.180391
H      -0.646770    1.767973   -0.804226
H      -0.354323    1.702263    0.954215
H      -1.691534   -0.332048    1.080746
H      -1.962891   -0.328828   -0.682177
H       0.609437   -2.792002    1.023243
H      -0.672800   -5.040667    0.221990
H      -3.178108   -3.352106    0.363470
H       0.046100   -2.955672   -1.889992
