20

C      -0.156949    1.503042    0.084252
C       0.033998    0.015647    0.042727
C      -0.761625   -0.945301    0.880539
C       0.738147   -0.950723    1.007072
C       1.344578   -1.733854   -0.161461
C       0.644600   -0.733497   -1.150336
C      -0.327245   -1.211588   -2.220675
N       0.057101   -2.334542   -2.897164
O      -1.360821   -0.620849   -2.472081
H       0.758390    2.034459   -0.203175
H      -0.949963    1.800075   -0.610340
H      -0.439430    1.840369    1.086982
H      -1.296179   -0.486598    1.706581
H      -1.283731   -1.787915    0.432309
H       1.240671   -0.737105    1.942987
H       2.434295   -1.680168   -0.214356
H       1.040734   -2.784814   -0.230620
H       1.399186   -0.116707   -1.652667
H       0.914804   -2.816633   -2.695804
H      -0.522590   -2.663696   -3.651664
