12

O      -0.122950    1.452579    0.004133
C      -0.034055    0.086366    0.074281
C      -0.249775   -0.836424   -1.138359
C      -1.157574   -0.923937    0.056544
N      -0.513323   -1.650140    1.157606
C       0.586571   -0.763907    1.189239
O       1.589358   -0.751433    1.842030
H       0.696609    1.792952   -0.372006
H      -0.647645   -0.307856   -2.000666
H       0.439366   -1.645144   -1.364480
H      -2.223952   -0.745283    0.053811
H      -0.390152   -2.657204    1.154707
