18

O       0.400900    0.756612    0.799631
C       0.146095   -0.340316   -0.022484
C      -1.310598   -0.875250   -0.259836
C      -0.956871   -1.117586   -1.761154
C       0.207384   -0.148811   -1.536570
O       0.754512    0.687077   -2.201590
N      -1.665472   -2.047918    0.504747
C      -2.288681   -1.801399    1.805141
C      -3.095015   -2.314321    0.664838
H       0.577079    1.509506    0.221508
H       0.755447   -1.201993    0.286321
H      -2.028641   -0.044918   -0.157718
H      -0.618616   -2.146437   -1.916856
H      -1.682903   -0.844220   -2.527705
H      -1.979675   -2.467321    2.605032
H      -2.444422   -0.767553    2.106200
H      -3.796558   -1.624478    0.198956
H      -3.385419   -3.359669    0.619634
