18

O      -0.007704    1.380223   -0.086464
C       0.014995   -0.015681   -0.015532
C      -0.453709   -0.696285    1.241136
C      -1.320776   -0.706192   -0.015404
C      -2.602799    0.052857   -0.090683
C      -3.549302   -0.646090   -0.726444
C      -3.002743   -1.947924   -1.212064
N      -1.902671   -1.773250   -2.209394
C      -1.577784   -1.982092   -0.780043
H       0.718781    1.714611    0.450063
H       0.810625   -0.491892   -0.588940
H       0.016392   -1.627873    1.541883
H      -0.779058   -0.059783    2.057365
H      -2.696652    1.060229    0.293159
H      -4.562119   -0.313430   -0.916155
H      -3.621036   -2.837210   -1.274278
H      -1.766481   -2.661358   -2.691358
H      -1.082761   -2.900425   -0.480638
