18

C       0.074815    1.553897    0.017765
C       0.005648    0.025056    0.005439
C       0.820370   -0.623393   -1.103254
C       2.251547   -0.861442   -0.652249
C       1.271968   -2.015265   -0.713317
C       1.186696   -2.023906    0.836057
C       2.166374   -0.870091    0.895674
C       0.694212   -0.636173    1.189548
H       1.114131    1.893133    0.076841
H      -0.368423    1.978167   -0.889451
H      -0.465537    1.968334    0.875534
H      -1.042728   -0.296651   -0.054040
H       0.628088   -0.403234   -2.147470
H       3.127829   -0.665237   -1.254419
H       1.254400   -2.874197   -1.370008
H       1.097694   -2.890076    1.477260
H       2.971180   -0.681148    1.592498
H       0.388393   -0.427518    2.208749
