16

C       0.366008    0.822392   -0.455169
O      -0.433080    0.403050    0.653317
C      -1.407652   -0.487946    0.359255
C      -1.381577   -1.812417   -0.040961
C      -0.184803   -2.669138   -0.317713
C      -2.753504   -2.157313   -0.094424
N      -3.558100   -1.154509    0.245684
N      -2.711169   -0.136943    0.506534
H       1.086701    1.540244   -0.059438
H       0.902175   -0.020641   -0.903963
H      -0.250945    1.305463   -1.222290
H      -0.396917   -3.718206   -0.090527
H       0.132217   -2.625607   -1.367449
H       0.669287   -2.365879    0.296245
H      -3.179828   -3.115287   -0.359207
H      -3.062398    0.747829    0.832436
