13

O      -0.088473   -0.056026   -0.000148
C      -0.027242    1.135083    0.009090
N       1.175758    1.884240    0.001804
C       1.139424    3.260981    0.013563
C       2.265882    4.002135    0.007054
C       3.560288    3.334302   -0.013071
O       4.646940    3.890538   -0.020389
C       3.434304    1.857343   -0.023650
N       2.337455    1.177295   -0.016984
H      -0.899846    1.812602    0.024310
H       0.142758    3.688950    0.028277
H       2.223578    5.083790    0.016492
H       4.352781    1.276376   -0.038673
