22

C      -0.148096    1.720156    0.092359
C      -0.027423    0.196873    0.211604
C      -1.338766   -0.540114   -0.075003
C      -1.866811   -0.450974   -1.517087
C      -2.882299   -1.593350   -1.536297
O      -2.354009   -2.607045   -0.686853
C      -1.326254   -2.073454    0.161661
C      -0.013691   -2.790221   -0.152631
H       0.799232    2.210404    0.337027
H      -0.425002    2.023110   -0.922526
H      -0.911221    2.111398    0.774596
H       0.753601   -0.160358   -0.470086
H       0.311645   -0.056477    1.224561
H      -2.111890   -0.120950    0.584443
H      -2.315930    0.515400   -1.758251
H      -1.058593   -0.637402   -2.234420
H      -3.858482   -1.251337   -1.156905
H      -3.042279   -2.022073   -2.531595
H      -1.603276   -2.293863    1.201902
H       0.340695   -2.557045   -1.161859
H       0.770708   -2.522492    0.562434
H      -0.173425   -3.870505   -0.095971
