15

N      -0.025484    1.179292   -0.647305
C      -0.016254    0.042458   -0.072963
N       1.197989   -0.529956    0.366463
N       1.606587   -1.554358    1.126406
C       0.819717   -2.389040    1.718844
C      -0.614201   -2.486850    1.727028
C      -1.521366   -1.770605    1.032724
C      -1.332310   -0.689193    0.071389
N      -2.279207   -0.265817   -0.680897
H       0.907929    1.596025   -0.684940
H       1.996325    0.011924    0.065899
H       1.357307   -3.132424    2.301373
H      -1.000903   -3.274918    2.368275
H      -2.566968   -2.038124    1.168684
H      -3.130584   -0.804817   -0.500349
