19

C      -0.037188    1.537478    0.010751
C      -0.031928    0.029179   -0.067791
C       0.867622   -0.662408   -1.013819
C       0.358110   -1.836460   -1.413370
C      -0.915395   -2.158899   -0.633453
C      -0.344946   -2.946674    0.546508
C      -0.039876   -2.118655    1.557382
C      -0.485030   -0.744783    1.272040
C      -1.287976   -0.791137    0.001593
H       0.934640    1.924011    0.337995
H      -0.258687    1.980085   -0.967387
H      -0.791331    1.898102    0.717367
H       1.835647   -0.265837   -1.300191
H       0.855779   -2.562815   -2.045804
H      -1.703701   -2.659445   -1.199853
H      -0.062668   -3.990361    0.470240
H       0.505982   -2.393373    2.452492
H      -0.745645   -0.070831    2.080756
H      -2.280470   -0.363632   -0.094271
