23

C      -0.465873    1.354353   -0.266277
C      -0.026560   -0.112272   -0.214911
C       1.070223   -0.471137   -1.220482
C       2.378784    0.273478   -0.999451
C       1.210664   -1.994877   -1.491007
C       0.653816   -1.654814   -2.865121
C       1.022054   -2.174208   -4.214341
C      -0.394516   -2.345068   -3.674894
O       0.589664   -0.256865   -2.590617
H       0.325225    2.033026    0.066776
H      -0.742073    1.628873   -1.288415
H      -1.334058    1.521218    0.378212
H       0.324159   -0.374256    0.792303
H      -0.891401   -0.753310   -0.422036
H       2.775533    0.069739    0.001451
H       3.122583   -0.038741   -1.737538
H       2.237428    1.353226   -1.099821
H       2.237397   -2.368145   -1.484720
H       0.585256   -2.639191   -0.868834
H       1.168251   -1.441996   -5.001352
H       1.663921   -3.047249   -4.279685
H      -0.721666   -3.334993   -3.372369
H      -1.168851   -1.722549   -4.110506
