18

C       0.023204    1.514129   -0.041875
C      -0.005663   -0.020090    0.004343
O       0.619412   -0.463870   -1.186744
C       0.970257   -1.846569   -1.176088
C       2.032219   -2.126456   -0.114443
C       1.638846   -1.474656    1.183301
C       0.690643   -0.544842    1.247929
C      -1.424774   -0.482166    0.021311
N      -2.520866   -0.849360    0.034009
H       1.064091    1.845226   -0.036499
H      -0.460801    1.865711   -0.955533
H      -0.495746    1.936446    0.821930
H       0.075896   -2.459037   -0.991892
H       1.331597   -2.065537   -2.183316
H       2.144662   -3.208841    0.022854
H       3.011825   -1.753241   -0.442267
H       2.151604   -1.788211    2.088563
H       0.380395   -0.102958    2.189488
