16

C       0.116707    1.501842    0.077425
C       0.036797    0.050148    0.052046
C      -0.029634   -1.152598    0.037506
C      -0.062467   -2.585836   -0.001204
O      -0.580057   -3.289859    1.141990
C      -1.346498   -3.348463   -0.059324
C      -2.695052   -2.667810   -0.050443
C      -1.309213   -4.639012   -0.733143
N      -1.299076   -5.654044   -1.285772
H       1.111280    1.846472   -0.224563
H      -0.615429    1.951464   -0.601813
H      -0.079705    1.886353    1.083923
H       0.808990   -3.065948   -0.444493
H      -2.603168   -1.677991    0.398512
H      -3.076758   -2.565980   -1.070325
H      -3.409597   -3.260551    0.527324
