12

C      -0.021616    1.539343    0.022355
C       0.001981    0.041337   -0.001740
C      -0.059430   -0.791697   -1.101094
N      -0.003923   -2.063882   -0.632982
N       0.089233   -2.128953    0.707200
C       0.092572   -0.855760    1.091011
H       0.892619    1.952623    0.463084
H      -0.113448    1.948499   -0.987665
H      -0.863224    1.922003    0.610503
H      -0.136197   -0.576522   -2.155673
H      -0.025421   -2.918224   -1.162482
H       0.160502   -0.616902    2.143135
