22

C       1.419843   -1.141904   -1.073829
C       0.372792   -0.404716   -0.220346
C      -1.040816   -0.764858   -0.696463
C       0.620291   -0.637321    1.278473
C       1.775786    0.166422    1.837694
O       1.439516    1.548640    1.767382
C      -0.509385   -0.882712    2.252639
C       0.421828   -2.009088    1.881835
H       1.308828   -2.228097   -0.978842
H       1.306592   -0.886654   -2.132719
H       2.443681   -0.887715   -0.783107
H       0.504856    0.672306   -0.379551
H      -1.280166   -1.818738   -0.510567
H      -1.803527   -0.151733   -0.208901
H      -1.125673   -0.600931   -1.775579
H       1.962756   -0.138661    2.879614
H       2.696306   -0.038135    1.269300
H       2.229499    2.059434    1.966412
H      -0.419933   -0.442677    3.240069
H      -1.525826   -0.926235    1.882003
H       0.032161   -2.791847    1.239576
H       1.136238   -2.362546    2.618526
