18

C      -0.915816    0.872021   -0.026489
O      -0.258542   -0.366124   -0.240727
C       0.949221   -0.249891   -0.943003
C       1.530739   -1.651621   -1.092609
C       0.720863   -2.166192   -2.305329
C       0.547721   -0.874160   -3.153924
O       0.762684    0.220827   -2.263844
C       1.351818   -3.256316   -3.036302
N       1.855063   -4.116187   -3.622344
H      -0.287282    1.558358    0.560223
H      -1.175349    1.357279   -0.974089
H      -1.826660    0.656122    0.535197
H       1.611620    0.473461   -0.447942
H       2.594292   -1.592519   -1.335115
H       1.393989   -2.258447   -0.198090
H      -0.257521   -2.503918   -1.952815
H       1.288279   -0.822007   -3.958881
H      -0.452305   -0.816722   -3.594516
