25

C       1.303929    1.169732   -0.369079
O       0.254226    0.445585    0.227976
C       0.685452   -0.607876    1.066612
C      -0.466308   -1.066713    2.020907
C      -1.860008   -0.576061    1.616861
C      -0.351381   -2.614883    2.069833
C       1.007121   -2.953568    1.425131
C       1.184740   -1.882980    0.332220
C       0.392537   -2.198596   -0.943172
H       1.898064    0.556786   -1.063045
H       0.852845    1.992324   -0.930204
H       1.987147    1.588081    0.387209
H       1.518578   -0.237126    1.686955
H      -0.252050   -0.660365    3.015563
H      -2.148112   -0.947372    0.628526
H      -2.604027   -0.929364    2.339008
H      -1.901777    0.514837    1.582473
H      -0.441618   -3.008051    3.086338
H      -1.164616   -3.064132    1.488723
H       1.809213   -2.861147    2.167790
H       1.051453   -3.973459    1.030575
H       2.242106   -1.779083    0.062820
H      -0.667577   -2.372829   -0.736625
H       0.449089   -1.376989   -1.661468
H       0.790045   -3.099401   -1.422496
