14

N       0.030138    1.491730   -0.116252
C      -0.013658    0.105502   -0.055065
C      -1.105320   -0.767433   -0.013744
N      -0.580179   -2.032908   -0.035359
N       0.757392   -2.041130   -0.091317
C       1.101866   -0.761205   -0.104067
O       2.384813   -0.335898   -0.153100
C      -2.532567   -0.553645    0.035486
O      -3.348441   -1.456587    0.068770
H       0.937660    1.865524    0.125536
H      -0.705037    1.969205    0.385050
H      -1.108930   -2.887560   -0.008959
H       2.952122   -1.116383   -0.162456
H      -2.849984    0.511083    0.037993
