15

N       0.209369    1.312605    0.295765
C       0.084675   -0.049010    0.095745
N      -1.086086   -0.627099   -0.062771
O      -0.799519   -1.976719   -0.320015
C       0.526035   -2.148245   -0.285848
C       1.167908   -0.981526   -0.033982
C       2.641575   -0.695188    0.050245
C       3.023173   -0.003787    1.283295
C       3.308968    0.588286    2.290037
H       0.958582    1.559910    0.929699
H      -0.664832    1.756559    0.543757
H       0.879045   -3.153462   -0.462789
H       3.202502   -1.633349   -0.031044
H       2.953569   -0.080174   -0.805447
H       3.582942    1.089348    3.185665
