16

C      -0.037648    1.500651   -0.002324
C       0.007020    0.009322    0.012268
C      -0.059959   -1.004530   -1.124860
C       0.818307   -1.989982   -0.301986
C       0.891011   -0.992659    0.828178
C      -0.256260   -2.015145    0.797372
C      -0.581317   -3.034036    1.722148
N      -0.858771   -3.866708    2.479086
C      -1.119170   -1.014754   -0.029524
H       0.928441    1.927362   -0.295001
H      -0.788205    1.853963   -0.717542
H      -0.300300    1.903210    0.982557
H      -0.173508   -0.848479   -2.188571
H       1.498514   -2.784846   -0.574690
H       1.636773   -0.864528    1.601109
H      -2.189506   -0.875594   -0.089909
