13

N      -0.101246    1.312520    0.010086
C       0.058170   -0.034133    0.002545
O       1.121595   -0.613866   -0.008660
C      -1.271259   -0.788012    0.010189
N      -2.397396   -0.064429    0.020474
C      -3.521784   -0.778604    0.026562
N      -3.595948   -2.108232    0.023316
C      -2.407643   -2.717272    0.013022
N      -1.218376   -2.118668    0.006055
H       0.717473    1.896413    0.003508
H      -1.024934    1.711796    0.016585
H      -4.459363   -0.227346    0.034863
H      -2.411540   -3.804882    0.010017
