14

C      -0.189953    1.559212    0.049505
C       0.029840    0.058410    0.006467
N       1.330934   -0.420916   -0.465796
C       0.978587   -0.677830    0.936293
C       1.778142    0.055303    1.967467
O       1.838279   -0.294872    3.117036
C      -1.137706   -0.709941   -0.379243
N      -2.067082   -1.313383   -0.710819
H       0.748377    2.072635    0.262072
H      -0.559909    1.909140   -0.918132
H      -0.925360    1.821370    0.814869
H       1.242341   -1.267000   -1.022791
H       0.671713   -1.674835    1.241075
H       2.326271    0.942098    1.585772
