16

O       0.718021   -0.237744   -0.142654
C       0.356233    0.877278   -0.407621
C       1.083331    2.135424    0.050045
C       1.139707    3.170528   -1.073701
O       0.118409    3.498090   -1.644953
C       2.468924    3.726322   -1.437771
C       2.701258    4.058608   -2.909963
C       2.504988    5.166346   -1.939629
H      -0.549888    1.081056   -1.014034
H       0.472511    2.575759    0.850409
H       2.058466    1.868225    0.460492
H       3.318890    3.374020   -0.866213
H       3.693473    3.867740   -3.301589
H       1.877987    3.822424   -3.573969
H       1.549137    5.677155   -1.950324
H       3.357507    5.765496   -1.641920
