13

O      -0.019904    1.318004    0.009310
N       1.280974    1.837586   -0.000667
C       2.102603    0.826262   -0.013757
C       1.405642   -0.426133   -0.013447
C       0.067856   -0.029176    0.001550
C      -0.966631   -0.964012    0.006780
N      -0.681597   -2.260098   -0.002639
C       0.609015   -2.653678   -0.017168
C       1.696430   -1.793243   -0.023281
H       3.166298    1.017657   -0.023076
H      -2.010936   -0.666678    0.018419
H       0.767261   -3.728111   -0.024207
H       2.711565   -2.172295   -0.035055
