17

C       0.003293    1.450340    0.085721
C      -0.074967   -0.046091   -0.084601
C       0.796437   -0.765782   -1.152727
N       0.516181   -2.221786   -0.907546
C      -0.518334   -2.140845   -0.182343
O      -0.475043   -2.379759    1.202208
C      -0.642608   -0.895768    1.221386
C      -1.350683   -0.803174   -0.063336
N      -2.633431   -0.498948   -0.576442
H       1.006223    1.757123    0.401026
H      -0.216032    1.963173   -0.858680
H      -0.707985    1.816643    0.833740
H       0.572137   -0.396336   -2.165547
H       1.871962   -0.651525   -0.980116
H      -0.759329   -0.461285    2.207895
H      -3.371871   -0.946386   -0.042939
H      -2.803590    0.500844   -0.574330
