17

O      -0.094633    1.439627   -0.135799
C       0.005938    0.028837   -0.035369
C      -1.408906   -0.534544   -0.007300
C      -1.420571   -2.067747    0.108757
C      -2.803919   -2.626522    0.071129
N      -3.335746   -3.264840    1.080657
O      -4.620733   -3.596381    0.622525
C      -4.703127   -3.112283   -0.615644
N      -3.637599   -2.506433   -1.027731
H       0.794377    1.805734   -0.146933
H       0.557063   -0.395924   -0.891005
H       0.544992   -0.270467    0.878850
H      -1.948493   -0.092220    0.837308
H      -1.932935   -0.228610   -0.918281
H      -0.853335   -2.503399   -0.723037
H      -0.943694   -2.391700    1.038503
H      -5.631415   -3.270646   -1.145210
