20

C      -0.270897    1.274014   -0.181317
N      -0.287650   -0.171897   -0.256871
C       0.538669   -0.717128   -1.031350
O       0.600671   -2.065113   -1.129454
C       1.483810   -2.574062   -2.133973
C       1.501059   -4.107783   -1.986243
C       0.783880   -4.610099   -3.261738
C       0.119271   -3.336097   -3.797942
O       1.015718   -2.284467   -3.419883
H      -0.072359    1.586533    0.850447
H       0.477328    1.750314   -0.836232
H      -1.258922    1.667285   -0.446767
H       1.259900   -0.179577   -1.664568
H       2.459480   -2.087080   -2.030327
H       2.523097   -4.483736   -1.912348
H       0.971144   -4.382786   -1.073114
H       1.507945   -4.989381   -3.987967
H       0.063028   -5.404560   -3.057385
H       0.016504   -3.304730   -4.884428
H      -0.866758   -3.174899   -3.342478
