16

C       1.061830    0.982161    0.264684
N       0.599836    0.168337   -0.872576
C      -0.259513    0.309228    0.310552
C      -0.519406   -0.947870    1.115510
C       0.678938   -1.915418    1.280421
N       1.075250   -1.793591    2.696084
C       0.197171   -1.056359    3.232600
O      -0.818804   -0.553062    2.488626
H       1.906871    0.570169    0.808322
H       1.072379    2.064077    0.166730
H       0.266684    0.762464   -1.626051
H      -1.130212    0.956970    0.228920
H      -1.411774   -1.449137    0.730601
H       0.400235   -2.953102    1.070015
H       1.506556   -1.664615    0.612976
H       0.164800   -0.774006    4.279298
