20

C       1.023627    1.260396   -0.490930
C       0.336403   -0.035050   -0.033989
C       0.469642   -1.209513   -1.045360
C       1.459373   -2.183695   -0.424671
C       2.758036   -1.659929    0.066320
N       1.643863   -1.890421    1.007575
C       0.847000   -0.685710    1.302036
C       1.567052    0.207493    2.295404
O       1.232462    1.330940    2.574356
H       2.093164    1.133468   -0.684815
H       0.564882    1.606112   -1.423257
H       0.911219    2.045925    0.258199
H      -0.721997    0.205492    0.097607
H      -0.491806   -1.716176   -1.179686
H       0.788406   -0.860450   -2.032772
H       1.377693   -3.233974   -0.690748
H       3.596801   -2.336479    0.200654
H       3.040685   -0.642190   -0.184455
H      -0.036496   -1.045250    1.851424
H       2.433321   -0.281895    2.793612
