27

C       0.546743    1.451566    0.034537
C       0.734594   -0.052447    0.149073
O       0.766395   -0.595947   -1.157687
C       0.934471   -2.014685   -1.239098
C      -0.317441   -2.615261   -1.893340
C      -1.615967   -2.284938   -1.153073
C       2.235592   -2.315863   -2.014858
C       3.440033   -1.616692   -1.369771
C       2.503690   -3.822637   -2.148113
H       1.369012    1.900123   -0.530555
H      -0.388226    1.683708   -0.483734
H       0.516880    1.909344    1.028012
H       1.670002   -0.280409    0.684682
H      -0.088039   -0.495751    0.732235
H       1.035643   -2.426069   -0.220932
H      -0.377385   -2.242830   -2.924162
H      -0.202840   -3.702338   -1.957170
H      -1.600109   -2.669274   -0.126571
H      -1.772986   -1.204128   -1.108483
H      -2.478384   -2.730529   -1.658455
H       2.102714   -1.895912   -3.021758
H       4.345852   -1.780690   -1.962607
H       3.274500   -0.540138   -1.293019
H       3.631452   -2.009184   -0.363132
H       1.737325   -4.335739   -2.734460
H       3.465326   -3.995928   -2.641927
H       2.551353   -4.302832   -1.162722
