17

C      -0.433415    1.577853   -0.439422
C      -0.042095    0.122699   -0.098813
C      -1.243763   -0.648387    0.234198
N      -2.192993   -1.246793    0.510761
C       0.769216   -0.522331   -1.237634
C       2.197530   -0.031760   -1.352330
C       0.413556   -1.842250   -1.779894
O       0.058290   -0.635972   -2.470570
H       0.459625    2.191992   -0.575943
H      -1.017693    1.596733   -1.361767
H      -1.029509    2.014141    0.364950
H       0.588984    0.123550    0.799283
H       2.772866   -0.296108   -0.458691
H       2.677119   -0.486166   -2.221819
H       2.241001    1.054658   -1.474418
H       1.188332   -2.439230   -2.259149
H      -0.421273   -2.400686   -1.364363
