19

O      -0.073972    1.420427    0.018006
C       0.005494   -0.005250    0.009903
C       0.251824   -0.568152    1.436660
C      -1.291146   -0.544796    1.653784
O      -1.767554    0.632854    2.266340
C      -1.437610   -0.566842    0.096813
C      -2.594480    0.186053   -0.564424
C      -2.570633    0.079473   -2.018553
C      -2.527861   -0.031131   -3.214948
H       0.816172    1.768647    0.134200
H       0.642387   -0.354411   -0.810283
H       0.655632   -1.584357    1.416456
H       0.846736    0.048160    2.116521
H      -1.736210   -1.378278    2.202146
H      -1.342027    1.370843    1.809128
H      -1.425448   -1.605286   -0.248283
H      -3.540914   -0.213283   -0.178147
H      -2.563972    1.239394   -0.271276
H      -2.505078   -0.114202   -4.272938
