22

C       0.053975    1.498728    0.166453
C      -0.119536   -0.008755   -0.046392
C       0.660314   -0.541557   -1.241116
C       2.216626   -0.575563   -1.178109
C       2.179396   -1.948025   -1.903249
C       3.145098   -3.023094   -1.453639
O       2.841066   -4.214565   -2.166445
C       0.683417   -2.072896   -1.507338
H       1.106248    1.757993    0.326973
H      -0.295071    2.063682   -0.705233
H      -0.510325    1.847971    1.036843
H       0.198651   -0.547084    0.857067
H      -1.184797   -0.241461   -0.179090
H       0.343853   -0.012727   -2.148978
H       2.774053    0.237203   -1.650210
H       2.565999   -0.680393   -0.143393
H       2.277377   -1.817552   -2.986194
H       4.181682   -2.696514   -1.643800
H       3.045099   -3.174103   -0.365335
H       3.434298   -4.907532   -1.862436
H       0.567338   -2.640479   -0.576563
H      -0.009846   -2.477761   -2.247586
