18

O       0.040892    1.399575   -0.174225
C       0.150648    0.010469    0.093250
C      -1.225608   -0.633504    0.086937
N      -1.943871   -0.599995   -1.235143
C      -1.607898   -1.916190   -1.907512
C      -0.688654   -2.743336   -1.012400
C      -1.494129   -2.151686    0.163072
O      -1.510043   -2.870755    1.338726
C      -2.673104   -1.845361   -0.884855
H      -0.504723    1.482002   -0.965618
H       0.816121   -0.479179   -0.632204
H       0.611984   -0.086275    1.082465
H      -1.867232   -0.093902    0.796219
H      -1.695182   -1.930255   -2.985370
H      -0.910239   -3.808011   -1.121373
H       0.392825   -2.584277   -1.036265
H      -1.979443   -2.360159    2.007741
H      -3.748959   -1.960914   -0.908389
