23

C       0.009234    1.534743   -0.100126
C       0.026234    0.006565   -0.001829
C      -1.369353   -0.603648    0.070435
O      -2.091595   -0.246859   -1.114362
C      -3.132725   -1.195165   -1.307069
C      -2.612579   -2.518469   -0.759182
C      -3.605665   -3.599107   -0.412981
C      -1.201995   -2.846146   -1.183649
C      -1.448973   -2.122130    0.119960
H       1.025180    1.937986   -0.151856
H      -0.534627    1.856452   -0.991782
H      -0.482973    1.981443    0.771273
H       0.550703   -0.421733   -0.863696
H       0.578675   -0.307027    0.892906
H      -1.891194   -0.197561    0.956909
H      -4.045395   -0.902452   -0.759422
H      -3.367716   -1.211987   -2.377421
H      -4.119298   -3.971901   -1.307262
H      -3.110935   -4.453084    0.059732
H      -4.371585   -3.229961    0.279428
H      -0.896263   -3.885203   -1.120892
H      -0.763549   -2.293301   -2.008487
H      -1.253473   -2.624040    1.061068
