21

C       0.060300    1.493102   -0.088237
C       0.122136   -0.042809    0.002212
C       0.754781   -0.515502    1.230938
C       1.274494   -0.850463    2.266539
C       1.912634   -1.345760    3.482272
C       1.973229   -2.887065    3.491783
O       2.643851   -3.382526    2.340783
C       2.754354   -3.434462    4.682093
O       2.810354   -4.844238    4.651916
H       1.064345    1.924527   -0.057482
H      -0.419435    1.800038   -1.022257
H      -0.511048    1.908576    0.746146
H      -0.892594   -0.455110   -0.067899
H       0.667305   -0.437485   -0.864775
H       2.934113   -0.950703    3.555710
H       1.368537   -0.998609    4.369974
H       0.946570   -3.282708    3.532177
H       2.195006   -3.021578    1.566955
H       3.763192   -2.988269    4.676565
H       2.262912   -3.148758    5.618149
H       3.074221   -5.074181    3.752627
