21

O       0.165144    1.458947   -0.143363
C       0.042270    0.068534   -0.021531
C       0.187150   -0.651521    1.358868
C      -0.906314    0.038340    2.201865
C      -2.071986    0.049237    1.150548
C      -1.353062   -0.637126   -0.030240
C      -0.614599   -1.779594    0.687637
C      -0.095349   -3.048808    0.098698
C      -1.114862   -3.077073    1.228836
H      -0.411078    1.882805    0.500192
H       0.711081   -0.363124   -0.767569
H       1.158833   -0.823211    1.822984
H      -1.158666   -0.537194    3.095769
H      -0.613428    1.041056    2.532141
H      -2.941088   -0.520525    1.488215
H      -2.420258    1.057949    0.902541
H      -1.916381   -0.794475   -0.950545
H      -0.430891   -3.338813   -0.892310
H       0.921858   -3.351521    0.327708
H      -0.775232   -3.397114    2.209216
H      -2.128238   -3.384429    0.989001
