16

C      -0.184357    1.060038   -0.239870
C      -0.337704   -0.461682   -0.020858
N       0.319160   -0.885818    1.206481
C       1.560490   -1.206172    1.158570
N       2.433029   -1.253979    0.117216
C       2.167826   -1.633769    2.467909
O       3.330151   -1.937420    2.576985
C      -1.767483   -0.813806    0.055922
N      -2.892003   -1.075514    0.079782
H       0.872689    1.314265   -0.356650
H      -0.726326    1.377826   -1.133977
H      -0.577093    1.598646    0.624808
H       0.055604   -0.989242   -0.906119
H       2.246720   -0.821734   -0.768740
H       3.388607   -1.478811    0.351059
H       1.446287   -1.637797    3.304136
