13

N       0.060607    1.329598   -0.087926
C      -0.030196   -0.012153   -0.013069
C      -1.162236   -0.765075    0.082129
C      -1.018427   -2.179079    0.170064
N       0.083862   -2.852314    0.168600
O       1.258200   -2.070333    0.064386
C       1.265848   -0.714134   -0.029518
N       2.346711   -0.047072   -0.132268
H       0.984337    1.715074   -0.214722
H      -0.753298    1.911274   -0.170037
H      -2.149690   -0.319993    0.095850
H      -1.898288   -2.811960    0.250237
H       3.162124   -0.658899   -0.133665
