16

C      -0.040513    1.548250    0.038747
C       0.060062    0.047205    0.025192
C      -0.799498   -0.832451    0.919045
C       0.687897   -0.856078    1.094571
O       1.382732   -1.861172    0.377717
C       1.118156   -1.605234   -0.938185
C       1.724041   -2.583615   -1.888000
O       1.590691   -2.531266   -3.081303
N       0.428264   -0.571375   -1.226504
H       0.888860    2.005190   -0.313876
H      -0.851563    1.880320   -0.616671
H      -0.245509    1.915252    1.048519
H      -1.355506   -0.320584    1.697092
H      -1.294885   -1.693317    0.482684
H       1.190245   -0.557172    2.005429
H       2.321530   -3.369417   -1.382007
