21

C       0.367325    0.864081   -0.619490
O      -0.379434    0.428590    0.513387
C      -1.466572   -0.396032    0.218739
C      -2.714990   -0.097548    1.003667
C      -2.656939    0.242738   -0.466886
C      -1.179840   -1.846942   -0.066306
O       0.040571   -2.193314   -0.725024
C      -0.172730   -2.682692    0.612052
C       0.760538   -2.221084    1.701070
H       1.133849    1.542640   -0.237602
H       0.839350    0.023244   -1.134295
H      -0.270074    1.410448   -1.327673
H      -3.333394   -0.928640    1.325739
H      -2.644420    0.721033    1.709931
H      -2.567450    1.290583   -0.728973
H      -3.235728   -0.351325   -1.166148
H      -2.057061   -2.367759   -0.460486
H      -0.385821   -3.754649    0.629840
H       0.885877   -1.139432    1.684862
H       0.359694   -2.514969    2.677697
H       1.737956   -2.702565    1.587228
