18

C       0.092235    1.539900   -0.210720
C      -0.004394    0.044942    0.138477
C      -1.408358   -0.483655    0.098167
C      -2.156350   -0.910140    1.157004
N      -3.407399   -1.306046    0.687704
C      -4.440673   -1.803396    1.469433
O      -5.514156   -2.140645    1.042508
C      -3.445725   -1.125544   -0.688996
C      -2.239424   -0.624638   -1.074620
H       1.131856    1.880874   -0.182647
H      -0.299875    1.738017   -1.213235
H      -0.485604    2.143520    0.495888
H       0.621560   -0.525826   -0.559603
H       0.417084   -0.124955    1.135625
H      -1.922529   -0.976434    2.208022
H      -4.156026   -1.852105    2.536146
H      -4.338393   -1.383085   -1.232886
H      -1.954932   -0.380214   -2.087650
