16

O      -0.041039   -0.027924    0.451052
C      -0.072914    1.163901    0.227238
C       1.127881    1.946072    0.002054
C       2.120740    2.599252   -0.188201
C      -1.369852    1.916541    0.142100
C      -2.068564    2.447610   -1.149873
C      -2.896585    2.905961    0.075696
C      -2.759410    1.474677    0.666459
N      -1.571157    3.317733    0.708528
H       3.001173    3.171628   -0.353571
H      -1.529082    3.233586   -1.677254
H      -2.510989    1.699043   -1.807650
H      -3.762347    3.567815    0.092604
H      -3.261441    0.650283    0.153441
H      -2.847705    1.390484    1.752992
H      -1.655057    3.244541    1.728597
