21

O      -0.483821    1.448227    0.508301
C      -0.147394    0.104252    0.195825
C      -1.440233   -0.702637    0.167308
C      -1.239672   -2.178052   -0.215929
C      -0.560722   -3.021985    0.908819
C      -1.695012   -3.751865    1.596875
O      -2.789312   -2.897915    1.964850
C      -2.899966   -3.678401    0.764639
C      -2.591728   -2.902562   -0.497909
H       0.329974    1.957776    0.558218
H       0.351211    0.037258   -0.786466
H       0.552105   -0.309344    0.939862
H      -1.934395   -0.635259    1.140899
H      -2.106759   -0.225708   -0.561500
H      -0.619813   -2.208500   -1.119146
H       0.132126   -3.761807    0.489763
H       0.012724   -2.403635    1.606502
H      -1.496564   -4.572230    2.282755
H      -3.676062   -4.440036    0.777082
H      -3.387655   -2.198476   -0.760855
H      -2.496646   -3.611430   -1.329651
