14

C      -0.035504    1.496681    0.057698
C      -0.011414    0.003053    0.019671
C      -0.024506   -0.811946   -1.064298
O       0.006606   -2.125939   -0.695588
C       0.040272   -2.155149    0.653379
C       0.032068   -0.887232    1.164994
C       0.059524   -0.510968    2.526781
C       0.082225   -0.159354    3.678660
H       0.851548    1.894858    0.562180
H      -0.069609    1.916390   -0.951043
H      -0.907107    1.865232    0.609382
H      -0.053947   -0.624799   -2.125093
H       0.067777   -3.128280    1.114284
H       0.102786    0.139871    4.696995
