20

C       0.443923    1.422342   -0.192723
C      -0.019852    0.030417    0.150778
O       0.954132   -1.022018    0.099789
C       0.395957   -0.683730    1.371886
C       1.226090   -0.048259    2.454064
C       2.253514   -0.713392    3.280079
C       3.112244   -1.692044    2.480434
C       3.446197   -0.497396    1.555560
N       2.609556    0.466186    2.374730
H       1.363237    1.678810    0.337545
H       0.621385    1.509724   -1.269771
H      -0.328068    2.151347    0.077340
H      -0.978310   -0.259168   -0.284380
H      -0.291027   -1.441016    1.759358
H       0.619807    0.660047    3.021083
H       2.260732   -0.617409    4.362154
H       3.975923   -2.060894    3.035953
H       2.586679   -2.543251    2.038940
H       4.488078   -0.180246    1.631964
H       3.154092   -0.571275    0.510588
