16

O      -0.064944    0.024471    0.064604
C      -0.029185    1.219872    0.020249
N      -1.042552    2.193872    0.044267
C      -0.083746    3.299125   -0.014173
C       0.933808    3.255928    1.079930
C       1.063497    2.289338   -0.092868
C       1.900779    2.701919   -1.281847
O       1.492332    4.052333   -1.560588
C       0.109371    4.201694   -1.210903
H      -1.869102    2.160971    0.629564
H       1.669264    4.054495    1.098615
H       0.647775    2.869428    2.051811
H       2.979711    2.731566   -1.108886
H       1.699000    2.035420   -2.132745
H      -0.559359    3.866055   -2.017543
H      -0.050805    5.268531   -1.032888
