14

N      -0.031878   -1.141864   -0.004802
C       0.001905    0.011721    0.002122
C      -0.005773    1.475016    0.012039
O       1.327830    1.940697   -0.000336
C       1.446115    3.294006    0.006399
C       0.484525    4.262935    0.024071
O       1.085520    5.490522    0.024177
C       2.423386    5.283447    0.006439
C       2.714308    3.958017   -0.005038
H      -0.556358    1.839708   -0.867960
H      -0.535740    1.827765    0.909403
H      -0.590597    4.261872    0.037244
H       3.035501    6.170083    0.004250
H       3.685611    3.491712   -0.019732
