18

C       0.058601    1.575153    0.064291
C      -0.015078    0.043553    0.045367
C       0.759698   -0.570323    1.221749
O       2.114979   -0.164125    1.112711
C      -1.429754   -0.463636    0.048378
N      -1.724286   -1.722400   -0.300042
N      -3.039856   -1.786276   -0.148815
N      -3.646750   -0.684433    0.264054
C      -2.635611    0.175662    0.399254
H       1.101599    1.895523    0.053055
H      -0.451673    2.007442   -0.801435
H      -0.405512    1.981597    0.970385
H       0.470541   -0.321614   -0.867509
H       0.311971   -0.228071    2.169717
H       0.662782   -1.664536    1.181791
H       2.601768   -0.536323    1.853306
H      -3.554350   -2.627630   -0.353459
H      -2.814727    1.186769    0.726024
