17

C       0.133106    1.465090   -0.084113
C      -0.033400   -0.019027   -0.048079
C      -1.193731   -0.699365   -0.064748
C      -1.231654   -2.163675   -0.025384
O      -2.267631   -2.815147   -0.039070
C       0.103609   -2.764520    0.032170
C       1.219548   -2.013548    0.045532
C       2.628414   -2.506967    0.102299
O       1.173153   -0.651499    0.006345
H       0.722424    1.765637   -0.957143
H      -0.839061    1.957568   -0.127391
H       0.668588    1.814405    0.805303
H      -2.133809   -0.163232   -0.108357
H       0.178695   -3.844523    0.064371
H       3.191913   -2.165103   -0.772574
H       3.137886   -2.116627    0.989921
H       2.650366   -3.596974    0.132897
