20

C      -0.008602    1.476877    0.260730
C       0.198245   -0.036679    0.144501
C       0.696820   -0.491968   -1.237922
N       2.089181   -0.083874   -1.444648
C       0.604194   -2.028821   -1.366631
C       1.560096   -2.784356   -2.228891
N       1.663643   -2.864954   -0.769492
C      -0.740730   -2.550306   -1.233496
N      -1.832606   -2.923260   -1.155281
H       0.914765    2.043336    0.095305
H      -0.746160    1.829294   -0.468270
H      -0.372978    1.740145    1.257672
H       0.911947   -0.383196    0.903267
H      -0.747940   -0.543797    0.356304
H       0.025259   -0.065049   -1.998181
H       2.258129    0.197689   -2.402909
H       2.321846    0.708223   -0.858791
H       1.224853   -3.691763   -2.720766
H       2.304654   -2.202204   -2.762407
H       2.396434   -2.212367   -0.483672
