15

C       0.044971    1.564309   -0.069387
C       0.108874    0.060641    0.006802
O      -1.025154   -0.569202   -0.507542
C       1.360831   -0.743312   -0.178715
O       2.489926   -0.028712    0.386715
C       1.962195   -0.124816    1.676441
O       2.481137    0.180427    2.697902
C       0.682575   -0.756074    1.191483
O      -0.172809   -1.602891    1.848409
H       0.993352    2.021900    0.216775
H      -0.186128    1.857990   -1.097810
H      -0.748815    1.944376    0.579825
H      -1.372683   -1.159002    0.175703
H       1.553155   -1.513946   -0.911628
H       0.285836   -2.419922    2.076772
