21

C       0.140652    1.324807   -0.226987
O       0.060472   -0.048702    0.064077
C      -1.252105   -0.556873   -0.048780
C      -1.215736   -2.032276    0.342910
C      -2.540695   -2.743713    0.148995
C      -2.971529   -3.176371   -1.251548
C      -2.549671   -4.213980   -0.270515
C      -3.650190   -2.369969    1.060198
O      -3.578514   -1.552348    1.945410
H       1.185228    1.624861   -0.111490
H      -0.179146    1.544779   -1.258704
H      -0.479790    1.925627    0.456733
H      -1.941047   -0.006553    0.608261
H      -1.618637   -0.442964   -1.084543
H      -0.442549   -2.526417   -0.255408
H      -0.911120   -2.107833    1.391777
H      -4.023713   -3.103547   -1.506711
H      -2.295511   -2.914754   -2.057755
H      -1.577538   -4.679558   -0.383837
H      -3.310044   -4.858655    0.157715
H      -4.599235   -2.926792    0.870412
