17

C      -0.013807    1.525429   -0.022161
C       1.423457    2.038790    0.029696
O       2.078087    1.633978    1.234349
C       1.931045    0.331811    1.547971
N       2.665330   -0.302803    2.420524
C       2.137219   -1.580795    2.445993
C       1.088041   -1.699873    1.582233
N       0.949475   -0.445793    0.997256
C      -0.013245   -0.005732    0.001488
H      -0.562646    1.916416    0.841057
H      -0.509094    1.886966   -0.927802
H       1.994381    1.673450   -0.836656
H       1.461158    3.129670    0.030989
H       2.554594   -2.338703    3.090976
H       0.438930   -2.518058    1.317969
H      -1.003391   -0.397258    0.254447
H       0.258239   -0.405245   -0.984569
