19

O       0.121108    1.453671    0.053863
C       0.100737    0.033116    0.047128
C       0.819708   -0.590748    1.247579
C       0.615190   -2.110136    1.235889
O      -0.758433   -2.444674    1.243340
C      -1.449276   -1.948685    0.109957
C      -1.367495   -0.418208    0.021795
C      -2.223132    0.249191    1.098734
O      -3.218124   -0.250269    1.559904
H       1.033573    1.741482    0.159874
H       0.579660   -0.344081   -0.872772
H       1.891852   -0.356930    1.218207
H       0.412948   -0.173024    2.176259
H       1.111156   -2.547852    0.351335
H       1.050771   -2.572280    2.125812
H      -1.044343   -2.398180   -0.811989
H      -2.490308   -2.253724    0.227458
H      -1.804487   -0.088903   -0.933023
H      -1.889699    1.260478    1.404005
