23

C      -0.068644    1.654471    0.082254
C       0.010397    0.124844    0.130423
C      -1.342254   -0.565457   -0.065631
C      -2.036141   -0.296316   -1.417696
C      -3.048652   -1.446771   -1.551949
C      -2.263868   -2.667696   -1.041088
C      -1.331267   -2.103097    0.035893
C      -0.238545   -2.903770    0.602797
O      -1.428743   -2.656479    1.355676
H       0.910759    2.104555    0.271608
H      -0.413388    2.010917   -0.893594
H      -0.762631    2.037142    0.839092
H       0.714230   -0.232435   -0.633258
H       0.425484   -0.176453    1.100040
H      -2.016635   -0.224185    0.733261
H      -2.501459    0.691517   -1.466416
H      -1.299148   -0.350528   -2.231061
H      -3.913318   -1.255425   -0.905401
H      -3.424839   -1.573765   -2.570504
H      -2.889674   -3.465088   -0.632806
H      -1.669001   -3.097150   -1.856223
H      -0.103113   -3.932578    0.266344
H       0.663742   -2.426545    0.980540
