21

C      -0.351108    1.500294   -0.094994
C       0.060485    0.044012    0.058936
C       1.337595   -0.684545   -0.321971
C       2.670650   -0.069206    0.161493
C       2.912472    1.471171    0.254386
C       2.389054    1.458888    1.731985
C       2.149039   -0.077586    1.622658
C       0.812738   -0.689185    1.130394
O       0.233636   -1.753684    1.811495
H       0.406869    2.219101    0.202711
H      -0.607279    1.702925   -1.141276
H      -1.248662    1.699744    0.502416
H      -0.766231   -0.606572   -0.235156
H       1.292416   -1.475352   -1.063052
H       3.534080   -0.674997   -0.116038
H       3.972189    1.730393    0.187946
H       2.374328    2.094485   -0.461498
H       3.169104    1.709576    2.455448
H       1.517177    2.075639    1.958758
H       2.618531   -0.716212    2.371486
H      -0.516063   -1.419410    2.315620
