20

C      -0.015024    1.381090   -0.080138
O      -0.010144   -0.038611   -0.059067
C      -1.259229   -0.616705    0.022020
O      -1.975265   -0.321789   -1.200594
C      -3.017419   -1.139543   -1.497643
N      -3.380676   -2.206703   -0.928116
C      -2.576136   -2.689672    0.192225
C      -1.142708   -2.125547    0.221861
C      -0.232515   -2.782125   -0.824381
H       1.028867    1.698954   -0.055156
H      -0.493032    1.766711   -0.986644
H      -0.536212    1.787443    0.798961
H      -1.845327   -0.159030    0.838049
H      -3.558271   -0.752558   -2.359639
H      -3.106913   -2.451216    1.123758
H      -2.541682   -3.783274    0.135919
H      -0.713254   -2.284310    1.217682
H      -0.650936   -2.693788   -1.830948
H       0.755096   -2.317103   -0.826249
H      -0.116406   -3.847277   -0.602897
