18

C       0.099370    1.567082   -0.132534
C      -0.046539    0.063612    0.085330
O       0.527092   -0.635489   -1.052954
C       1.475961   -1.635390   -0.668496
C       1.561171   -1.457507    0.809298
C       0.698066   -0.500793    1.256462
C       0.831615   -0.421852    2.669823
C       1.789543   -1.350774    3.020535
N       2.232380   -1.984932    1.874054
H       1.155993    1.847066   -0.166559
H      -0.373879    1.862202   -1.073509
H      -0.381912    2.116906    0.683413
H      -1.118796   -0.187092    0.122108
H       1.113508   -2.631991   -0.970196
H       2.423939   -1.458504   -1.199439
H       0.306069    0.224119    3.356348
H       2.197137   -1.612228    3.984145
H       2.934197   -2.703450    1.847437
