21

C       0.125733    1.522410   -0.047785
C       0.033046    0.009119   -0.004773
C      -1.218550   -0.556078   -0.649076
C       1.307126   -0.803430   -0.117749
O       2.560970   -0.229302   -0.313360
C       0.580579   -0.746421    1.212189
C       1.146661   -0.053927    2.410790
C       2.439557   -0.439246    2.999325
O       2.317982    0.774528    2.242024
H       1.059691    1.900289    0.370763
H       0.062829    1.873069   -1.084026
H      -0.700529    1.982328    0.506902
H      -1.299380   -0.233442   -1.693744
H      -1.218589   -1.651164   -0.638450
H      -2.122664   -0.219950   -0.126490
H       1.235304   -1.738090   -0.669037
H       2.749138    0.334716    0.451545
H       0.025564   -1.639259    1.495914
H       0.416548    0.396762    3.084780
H       2.621500   -0.294219    4.062137
H       3.025167   -1.219953    2.518939
