21

C       0.447254    1.378194   -0.530933
C       0.272346   -0.106262   -0.198179
C       0.976867   -1.038911   -1.191441
C       2.464791   -1.135632   -1.120585
C       1.604369   -2.195672   -0.436645
C       1.358389   -1.965690    1.017632
O       1.561307   -2.756529    1.907054
C       0.741440   -0.563542    1.219881
C       1.698216    0.352428    2.001761
H       1.499008    1.678561   -0.510844
H       0.062742    1.591125   -1.533989
H      -0.097857    2.014060    0.174062
H      -0.798430   -0.334325   -0.266678
H       0.497211   -1.212221   -2.148822
H       2.993742   -1.470814   -2.005800
H       3.027906   -0.439477   -0.509696
H       1.644242   -3.214711   -0.799939
H      -0.135672   -0.717970    1.857301
H       2.616395    0.576624    1.450975
H       1.219449    1.303821    2.250135
H       1.982022   -0.141396    2.935205
