19

C      -0.085100    1.664195    0.083738
C       0.012324    0.147516    0.017877
O      -1.338020   -0.355398   -0.123989
C      -1.885581   -0.345982   -1.350605
O      -3.012498   -0.687614   -1.559375
C       1.128723   -0.593425   -0.795613
C       2.114966   -0.185795    0.338166
C       0.823455   -0.661962    1.068815
C       0.815868   -1.857599    0.067293
H       0.869033    2.146953    0.294936
H      -0.461990    2.066032   -0.862788
H      -0.795190    1.946033    0.866727
H      -1.187191   -0.003378   -2.137426
H       1.311727   -0.546505   -1.869983
H       2.980015   -0.841143    0.454405
H       2.408321    0.859969    0.422235
H       0.638319   -0.691290    2.142858
H      -0.132549   -2.364642   -0.095890
H       1.640245   -2.565490    0.173381
