16

O      -0.647866    0.833054    0.640904
C       0.329692    0.786219   -0.062504
C       1.447101    1.775421    0.010485
C       1.806975    2.790212    1.123270
C       2.895627    2.885639    0.019859
N       2.908627    1.371379   -0.129546
C       1.757234    2.910121   -1.048687
C       2.045340    2.556162   -2.418491
C       2.244603    2.317043   -3.579561
H       0.466899    0.000435   -0.836381
H       1.142849    3.644063    1.281372
H       2.129676    2.345851    2.067470
H       3.816038    3.469244    0.008982
H       3.214942    0.955743    0.756580
H       1.083208    3.766699   -0.979510
H       2.436410    2.088280   -4.598662
