11

C      -0.074920    1.531291   -0.048888
C      -0.031061    0.034030    0.082207
O       1.219165   -0.614107   -0.152406
C       0.687576   -0.667032    1.171664
C       1.404167    0.070536    2.190283
N       1.960743    0.647453    3.022996
H       0.782152    1.996768    0.442550
H      -0.066977    1.813082   -1.106305
H      -0.993653    1.923298    0.398992
H      -0.883982   -0.505603   -0.332547
H       0.341278   -1.647141    1.494851
