17

C      -0.341852    1.129689   -0.221483
C       1.080108    1.126563    0.281289
C       0.361046   -0.173085    0.041550
N      -0.024411   -0.928254    1.198550
C      -1.086086   -1.786538    1.117334
N      -2.005367   -1.856843    0.202186
C      -2.847402   -2.867850    0.666294
C      -2.382041   -3.355738    1.832960
O      -1.227087   -2.658308    2.144611
H      -1.120971    1.412832    0.475232
H      -0.531910    1.397433   -1.253977
H       1.879028    1.395334   -0.400126
H       1.246321    1.418157    1.312366
H       0.649741   -0.758487   -0.829698
H       0.723864   -1.256129    1.792002
H      -3.724870   -3.165482    0.114060
H      -2.682172   -4.116067    2.531355
