20

C       0.309147    1.539962    0.270878
C      -0.056337    0.072107    0.037388
O      -1.458610   -0.138999    0.066943
C       0.554451   -0.500046   -1.262643
C       0.585684   -2.034779   -1.346980
C       0.591870   -2.272422   -2.858231
O      -0.153759   -1.167955   -3.412909
C      -0.231590   -0.151061   -2.514880
N      -0.903102    0.908162   -2.698029
H       1.393478    1.664513    0.367239
H      -0.037766    2.157144   -0.561871
H      -0.161351    1.891432    1.193131
H       0.335975   -0.526191    0.869477
H      -1.820277    0.395188   -0.654920
H       1.571964   -0.105108   -1.387652
H       1.446954   -2.482122   -0.846606
H      -0.329389   -2.434529   -0.898694
H       1.605825   -2.256256   -3.276561
H       0.097414   -3.194124   -3.172484
H      -1.358872    0.893714   -3.611870
