17

C       0.000150    1.446893   -0.025481
C       0.003869   -0.045792   -0.005627
O       0.570252   -0.786998   -1.134129
C       0.121193   -1.815983   -0.209760
C       0.564497   -1.048611    1.076612
C      -0.821861   -1.207762    1.680720
C      -1.384162   -1.905273    2.827356
O      -1.359440   -0.460308    2.751024
C      -1.182212   -1.064487    0.210387
H       1.022111    1.831804   -0.094350
H      -0.568654    1.817316   -0.883709
H      -0.458467    1.827469    0.891769
H       0.262340   -2.861922   -0.475207
H       1.551759   -1.038155    1.535024
H      -2.375265   -2.352704    2.765171
H      -0.728409   -2.337736    3.581882
H      -2.144669   -1.071757   -0.298102
