16

O      -0.044060    1.443807   -0.146620
C       0.033618    0.049807    0.143749
C      -1.361002   -0.533380    0.069145
O      -2.280158    0.123042    0.882030
C      -1.864150   -1.098197   -1.227330
O      -0.986439   -1.095740   -2.302437
C      -1.594851   -2.031764   -0.028365
C      -0.497700   -2.949751   -0.097641
N       0.381793   -3.696899   -0.187198
H      -0.141368    1.532192   -1.101584
H       0.721197   -0.474340   -0.524758
H       0.405857   -0.029029    1.169262
H      -2.067426    1.063446    0.792943
H      -2.917086   -0.939750   -1.455338
H      -1.021181   -1.950453   -2.747528
H      -2.471689   -2.391923    0.499515
