15

C      -0.040521    1.452100   -0.027344
C      -0.002200   -0.001137   -0.010758
C       0.025682   -1.206638    0.000827
C       0.054855   -2.619488    0.015170
C       1.121109   -3.433666    0.223954
O       0.682739   -4.737754    0.145789
C      -0.642703   -4.623060   -0.107458
N      -1.330477   -5.792868   -0.302674
N      -1.088946   -3.410958   -0.194053
H       0.617978    1.860469   -0.802422
H      -1.054386    1.814983   -0.228256
H       0.278059    1.871656    0.933719
H       2.165426   -3.283749    0.428753
H      -0.973757   -6.586218    0.209455
H      -2.330153   -5.677452   -0.227367
