15

O       0.067237    0.073857   -0.598451
C       0.042629    1.175288   -0.138596
C      -1.040037    2.022378    0.568003
C      -0.021441    3.186497    0.622055
O       0.754371    3.182813    1.836555
C       1.851924    2.469182    1.203765
C       2.266841    1.265454    1.898199
C       2.615860    0.265958    2.466456
C       1.051377    2.339420   -0.129771
H      -1.896691    2.204510   -0.090628
H      -1.396342    1.658864    1.534361
H      -0.346809    4.185130    0.328967
H       2.707895    3.144977    1.082172
H       2.919640   -0.621206    2.965793
H       1.569200    2.591368   -1.053453
