25

C       0.055521    1.489138    0.384065
C       0.174889   -0.024824    0.170998
C      -1.173800   -0.716136   -0.051885
C      -1.939501   -0.383323   -1.376945
C      -1.075141   -0.115281   -2.624032
C      -2.788149   -1.624155   -1.555600
C      -2.375384   -2.638319   -0.798254
C      -1.172437   -2.277620    0.044897
C       0.100323   -2.996571   -0.441279
H       1.035988    1.943779    0.557731
H      -0.391861    1.988826   -0.481183
H      -0.574101    1.713612    1.252539
H       0.853525   -0.227468   -0.665542
H       0.651830   -0.465536    1.056200
H      -1.839940   -0.381769    0.754740
H      -2.570527    0.502034   -1.224603
H      -0.401096   -0.950877   -2.835281
H      -1.713232    0.019547   -3.504262
H      -0.470512    0.790546   -2.515498
H      -3.603990   -1.666866   -2.270555
H      -2.802780   -3.636234   -0.799414
H      -1.325103   -2.572013    1.092270
H       0.330651   -2.752873   -1.482850
H       0.969392   -2.735296    0.170714
H      -0.030732   -4.082464   -0.380462
