19

O       0.929796   -0.664571    1.124982
C       0.154984   -0.049860    0.114017
C      -1.285237   -0.589429    0.092565
C      -2.000090   -0.071967    1.322257
O      -1.426997    0.238515    2.345113
C      -2.116882   -0.648973   -1.248898
C      -1.170638   -1.791048   -1.730213
C      -1.511261   -2.122166   -0.249790
C      -2.985018   -1.781156   -0.617589
H       0.503644   -0.415412    1.956030
H       0.117821    1.043051    0.246467
H       0.671186   -0.235170   -0.828596
H      -3.099290    0.053945    1.263195
H      -2.468945    0.207252   -1.826843
H      -1.597504   -2.471764   -2.470862
H      -0.141627   -1.545234   -1.982443
H      -1.145854   -2.956510    0.347892
H      -3.679560   -1.530973    0.183128
H      -3.458582   -2.458369   -1.331897
