18

C       0.038496    1.512811    0.131089
C       0.012355    0.003136   -0.031569
C       0.745640   -0.515360   -1.264129
C       0.750482   -2.046129   -1.232483
N       1.104316   -2.598652    0.068503
C       1.033259   -1.843869    1.088119
O       0.613255   -0.549676    1.160159
C       1.429255   -2.325722    2.382045
C       1.760631   -2.720995    3.467179
H       1.069211    1.878903    0.157493
H      -0.480349    1.990183   -0.705595
H      -0.455609    1.807080    1.060746
H      -1.029537   -0.348353   -0.057508
H       0.265132   -0.139148   -2.173114
H       1.773751   -0.134050   -1.251443
H      -0.235671   -2.439997   -1.515630
H       1.455626   -2.447691   -1.968715
H       2.055873   -3.080949    4.421897
