17

C       0.033963    1.429455   -0.121852
C       0.013397   -0.056289    0.090058
N      -0.049540   -0.573913    1.245830
O       0.071430   -0.690642   -1.118762
C       0.058436   -2.095736   -1.133303
C       0.099694   -2.594446   -2.579309
C       0.182166   -4.103551   -2.721504
O       0.071062   -1.844731   -3.520132
H       0.944229    1.720988   -0.654569
H      -0.813960    1.732522   -0.743564
H      -0.011317    1.936660    0.840550
H      -0.054414   -1.592574    1.229501
H       0.917581   -2.513463   -0.585743
H      -0.849459   -2.494617   -0.653736
H      -0.586130   -4.601992   -2.120561
H       0.067203   -4.376393   -3.770783
H       1.154012   -4.460796   -2.361162
