14

N       0.007847   -1.170073    0.049045
C       0.034548   -0.014421    0.022833
C       0.069123    1.426698    0.004614
N       0.469703    2.230101    1.179878
C       1.529557    1.441060    1.920176
C       2.481129    1.435713    0.696420
C       1.365352    2.171817   -0.051501
C       1.550933    3.272240   -0.950463
N       1.728659    4.145393   -1.687559
H      -0.760112    1.884384   -0.526372
H       1.888230    2.041305    2.755605
H       1.174097    0.475415    2.284793
H       3.362884    2.059912    0.837962
H       2.777183    0.473012    0.276383
