16

N       0.189296    1.308130    0.379552
C       0.020355   -0.044258    0.071134
C      -1.083986   -0.824388   -0.055974
O      -0.727197   -2.108747   -0.302910
N       0.655357   -2.194772   -0.339619
C       1.091127   -0.976024   -0.117724
N       2.439710   -0.613957   -0.140567
C       3.174616   -0.607250    1.137923
C       3.436499   -1.651724    0.111189
H       1.033658    1.676212   -0.042751
H      -0.601546    1.882628    0.119851
H      -2.143323   -0.629421   -0.008218
H       3.862485    0.222175    1.267540
H       2.626506   -0.904110    2.027625
H       3.067669   -2.653992    0.302839
H       4.323733   -1.588863   -0.510710
