22

C       0.196320    1.637058   -0.026038
C       0.036662    0.105686    0.033965
C       0.619757   -0.630347   -1.200515
C      -0.105639   -0.289302   -2.486653
C       0.376438    0.803739   -3.416734
C       0.456587   -0.639285   -3.848354
C       1.790127   -1.331352   -4.034260
C       0.648866   -0.420529    1.259292
N       1.144723   -0.834892    2.217838
H       1.253310    1.913267   -0.082817
H      -0.311479    2.029721   -0.908911
H      -0.230845    2.108368    0.862555
H      -1.034613   -0.129309    0.092946
H       1.685225   -0.389987   -1.277016
H       0.557890   -1.709244   -1.015122
H      -1.186648   -0.389547   -2.405798
H      -0.352102    1.457751   -3.883872
H       1.310573    1.295466   -3.160755
H      -0.293758   -0.945760   -4.572952
H       2.545044   -0.966253   -3.332196
H       1.703015   -2.414687   -3.894935
H       2.175350   -1.157468   -5.044781
