18

O      -0.134789    1.310827    0.022900
N      -0.004668   -0.095948    0.030081
C      -1.133273   -0.661781   -0.015798
C      -2.586767   -0.225718   -0.001683
C      -3.099406   -0.998879   -1.229260
N      -2.272579   -2.248226   -1.208628
C      -1.425502   -2.144466    0.001102
C      -2.304137   -2.207373    1.275337
N      -3.104956   -0.937984    1.198255
H       0.784958    1.595460    0.050359
H      -2.803090    0.838766    0.018658
H      -4.170052   -1.201187   -1.130235
H      -2.926614   -0.444020   -2.158909
H      -2.864286   -3.070049   -1.155591
H      -0.572726   -2.820958   -0.020670
H      -2.964258   -3.082948    1.265672
H      -1.694807   -2.251720    2.186101
H      -2.914110   -0.373929    2.019049
