15

N      -0.052107    1.261113   -0.024251
C      -0.036167    0.007120   -0.010629
O       1.113281   -0.779463   -0.040178
C       0.718277   -2.142494   -0.073230
C      -0.648053   -2.124103   -0.761321
C      -1.217282   -0.947880    0.044844
N      -1.409236   -1.373483    1.446289
C      -0.526278   -2.158528    1.902948
O       0.581276   -2.632732    1.263832
H       0.896411    1.640626   -0.050186
H       1.515190   -2.726493   -0.528714
H      -0.539940   -1.890690   -1.823089
H      -1.204613   -3.053447   -0.635343
H      -2.130844   -0.495690   -0.332794
H      -0.581186   -2.550824    2.915071
