20

C      -0.067267    1.638625    0.052206
C       0.006767    0.122128    0.004104
C       0.822673   -0.630565   -1.113591
C       2.223226   -0.034960   -0.903100
O       2.291632   -0.032506    0.542710
C       1.032285   -0.630568    0.903833
C       0.899809   -1.783554   -0.092327
C       0.143995   -3.042406   -0.049415
N       1.631779   -3.030664   -0.106358
H       0.924108    2.085470    0.156805
H      -0.537572    2.042930   -0.850895
H      -0.667163    1.963804    0.908844
H      -0.984713   -0.329675    0.090808
H       0.459324   -0.755362   -2.133803
H       3.022892   -0.662377   -1.314787
H       2.336316    0.983899   -1.289034
H       0.962099   -0.728466    1.985386
H      -0.268056   -3.413538    0.885412
H      -0.408880   -3.342631   -0.936821
H       1.947239   -3.253961   -1.048583
