19

O      -0.356533   -0.164032    0.342786
C      -0.091650    0.963641   -0.122279
O       0.954609    1.459306   -0.559111
C      -1.327400    1.987139   -0.123434
C      -2.636011    1.207640   -0.144526
C      -3.819335    1.936849    0.483126
N      -4.967097    0.999896    0.602538
C      -6.040238    1.022855   -0.134409
N      -6.947312    0.046940   -0.209255
H      -7.735907    0.138444   -0.826674
H      -6.833330   -0.832626    0.269914
H      -1.242680    2.568069    0.805580
H      -1.230735    2.689072   -0.955803
H      -2.905769    0.908544   -1.166057
H      -2.404672    0.286297    0.413806
H      -3.580302    2.281819    1.492978
H      -4.168327    2.796352   -0.098181
H      -4.754730    0.158268    1.129313
H      -6.219891    1.910596   -0.731478
