20

C      -0.254363    1.308953   -0.536027
O      -0.109458   -0.037741   -0.145156
C       0.686662   -0.794688   -1.035394
C       0.700723   -2.228145   -0.527703
N      -0.649461   -2.755957   -0.441610
C      -1.027208   -3.937066   -0.978785
O      -0.269810   -4.698636   -1.566003
C      -2.504689   -4.316242   -0.820074
O      -2.747757   -5.540993   -1.444479
H       0.717011    1.824686   -0.578724
H      -0.734643    1.396813   -1.522726
H      -0.882882    1.800443    0.210169
H       0.268303   -0.754642   -2.054384
H       1.714431   -0.398817   -1.075585
H       1.263286   -2.874657   -1.203744
H       1.183910   -2.256483    0.457144
H      -1.335892   -2.163258   -0.000632
H      -2.745299   -4.359926    0.254772
H      -3.127817   -3.517960   -1.254758
H      -1.877481   -5.809140   -1.787608
