17

C      -0.119128    1.495503    0.037338
C       0.120799    0.019596   -0.003774
N      -0.732757   -0.949981    0.720675
C       0.730957   -0.922833    0.975216
C       1.299773   -1.819674   -0.131292
O       0.852809   -3.130580   -0.173952
C       0.703256   -0.772051   -1.192937
C      -0.226416   -1.274016   -2.188142
N      -0.970967   -1.676917   -2.975418
H       0.757313    2.045963   -0.319773
H      -0.970251    1.771870   -0.594643
H      -0.333550    1.828511    1.058344
H      -1.195777   -0.454223    1.480519
H       1.122879   -0.748568    1.969819
H       2.389713   -1.835120   -0.178693
H      -0.099941   -3.097273   -0.004144
H       1.513928   -0.226120   -1.682762
