19

O       0.209797    0.980136   -0.963434
C       0.068127    0.123049    0.182246
C      -1.306270   -0.510939    0.255107
C      -1.805240   -1.245215   -0.972940
O      -0.921553   -1.390068   -2.042649
C      -1.520040   -2.020551    0.286428
C      -0.357236   -3.005373    0.331668
C      -0.812191   -4.389169    0.242024
C      -1.204167   -5.523551    0.180630
H      -0.460346    1.668923   -0.897947
H       0.855338   -0.623673    0.066127
H       0.283875    0.681019    1.103081
H      -2.043671    0.074168    0.799341
H      -2.846547   -1.113740   -1.264525
H      -0.480714   -0.534653   -2.153282
H      -2.389099   -2.343370    0.850541
H       0.319109   -2.796530   -0.503930
H       0.219210   -2.875785    1.257134
H      -1.539003   -6.528851    0.116353
