15

N       0.030941    1.346596    0.007796
C      -0.028841    0.010507    0.001290
C      -1.231121   -0.676699    0.004668
C      -1.482278   -2.059562   -0.000954
N      -0.700261   -3.116206   -0.010504
C       0.646910   -3.048423   -0.017530
C       1.539966   -2.004914   -0.017537
C       1.350086   -0.583892   -0.009794
O       2.296446    0.209267   -0.011077
H       0.969352    1.731292    0.003718
H      -0.785833    1.930687    0.014807
H      -2.127911   -0.059120    0.012832
H      -2.545833   -2.308532    0.003596
H       1.108524   -4.036709   -0.024727
H       2.592305   -2.276362   -0.024655
