19

C       0.080754    1.542465   -0.091781
C       0.136378    0.030403    0.018563
O       0.787082   -0.483298   -1.149103
C       0.834569   -1.903481   -1.181311
C       1.784846   -2.388697   -0.087234
O       3.091200   -1.895835   -0.328729
C       1.255667   -1.925506    1.284939
C       0.860182   -0.454388    1.288905
O       1.068983    0.278650    2.225376
H       1.090523    1.956514   -0.153464
H      -0.474871    1.832365   -0.986437
H      -0.403733    1.963273    0.790842
H      -0.888740   -0.384682    0.059329
H      -0.172964   -2.332691   -1.059537
H       1.219216   -2.176551   -2.167389
H       1.860198   -3.481551   -0.104595
H       2.989737   -0.980596   -0.620801
H       0.350039   -2.499098    1.531529
H       1.990854   -2.100221    2.073072
