19

C      -0.046997    1.486313   -0.107621
C      -0.002483    0.032329   -0.052866
C       0.031759   -1.170841   -0.002199
C       0.059198   -2.617957    0.059946
C       0.339640   -3.332445    1.443993
C      -1.003761   -4.049787    1.287196
O      -2.009782   -3.029236    1.203864
C      -1.301069   -3.374673    0.011441
C      -2.083419   -3.748508   -1.203461
H       0.666173    1.932850    0.594458
H       0.199562    1.857509   -1.108754
H      -1.043018    1.863462    0.149839
H       0.734328   -3.024106   -0.701711
H       1.209852   -3.990903    1.401168
H       0.409111   -2.674106    2.311436
H      -1.312778   -5.018252    1.664308
H      -2.496891   -2.853533   -1.681645
H      -1.449244   -4.259416   -1.935091
H      -2.913481   -4.407032   -0.934331
