17

C       0.014508    1.515481    0.073466
C      -0.028770   -0.009283   -0.028914
C       0.707619   -0.552176   -1.266165
C       0.809698   -2.076688   -1.181626
N       1.259346   -2.542854    0.125987
C       1.131275   -1.768896    1.111497
O       0.593354   -0.512048    1.169046
C      -1.437846   -0.467622   -0.039365
N      -2.539293   -0.814904   -0.069876
H       1.056667    1.843235    0.089762
H      -0.491727    1.968181   -0.782694
H      -0.475985    1.847527    0.990900
H       0.193389   -0.229645   -2.175858
H       1.708295   -0.106683   -1.268150
H      -0.159392   -2.541574   -1.401783
H       1.509800   -2.450072   -1.935559
H       1.476484   -2.050796    2.103783
