24

C       0.405942    0.903597   -1.872423
N       0.394817   -0.200970   -0.927184
C       1.549274   -0.463394   -0.053443
C       2.835696    0.336908   -0.074866
C       3.809000   -0.166493   -1.137877
O       4.999996    0.598060   -1.028371
C       0.254202    0.034160    0.517265
C       0.136865    1.438997    1.083464
C      -0.660402   -0.963329    1.206696
H       0.954987    1.803589   -1.561688
H       0.842680    0.555539   -2.814883
H      -0.628098    1.200268   -2.077751
H       1.737376   -1.534011    0.058357
H       2.665747    1.402872   -0.243212
H       3.326180    0.252825    0.903049
H       4.005626   -1.239558   -0.980034
H       3.357289   -0.063228   -2.137236
H       5.616792    0.292442   -1.699659
H       0.810828    2.158900    0.618207
H      -0.887058    1.812415    0.964162
H       0.355374    1.429232    2.156890
H      -0.412185   -1.055489    2.270521
H      -1.707394   -0.645829    1.134345
H      -0.574887   -1.947530    0.740274
