19

C      -0.088325    1.523946   -0.033152
C       0.035840    0.017380    0.030556
O      -1.111576   -0.659179   -0.396128
C       1.365139   -0.673081   -0.231305
C       0.756633   -0.674445    1.161473
C       1.393942    0.081341    2.304060
O       0.128054   -1.865189    1.610316
C       0.892980   -2.970326    1.717719
O       0.477783   -3.998888    2.160601
H       0.819175    2.034463    0.296375
H      -0.278388    1.835273   -1.067501
H      -0.927183    1.866242    0.580512
H      -1.211583   -0.500491   -1.341413
H       1.312933   -1.596064   -0.797661
H       2.257758   -0.078537   -0.397515
H       1.849993    1.014905    1.969530
H       0.648252    0.312585    3.070724
H       2.179646   -0.524784    2.768082
H       1.924203   -2.817109    1.348730
