21

C       0.309780    1.599305   -0.172602
C       0.044900    0.093053    0.031540
C       0.566509   -0.766001   -1.149979
C      -0.177430   -0.504257   -2.437774
O       0.205948    0.630366   -3.228256
C       0.385517   -0.675802   -3.788616
C       1.793736   -1.120116   -4.091349
C       0.623880   -0.373905    1.290483
C       1.121638   -0.756986    2.315825
H       1.385120    1.792973   -0.229347
H      -0.147685    1.948805   -1.100335
H      -0.094765    2.175389    0.663557
H      -1.043490   -0.055115    0.090078
H       1.636208   -0.580617   -1.278789
H       0.449228   -1.825048   -0.890777
H      -1.261875   -0.617211   -2.348556
H      -0.331676   -0.904498   -4.580571
H       2.482937   -0.878901   -3.280212
H       1.821688   -2.201430   -4.264981
H       2.155411   -0.627387   -4.999905
H       1.549459   -1.093415    3.227436
