15

O      -0.131653    1.293477    0.017081
N       0.047245   -0.094886   -0.063702
C      -1.054726   -0.701701    0.063238
C      -1.406625   -2.137198   -0.047442
C      -2.303750   -2.531713    1.111926
C      -2.903306   -1.747748   -0.006390
C      -2.529549   -0.250265    0.123702
C      -3.007116    0.463877    1.300576
N      -3.394147    1.002391    2.247251
H       0.767881    1.625499   -0.076654
H      -0.897093   -2.869043   -0.659273
H      -2.565523   -3.584412    1.130798
H      -2.168645   -2.084145    2.091934
H      -3.708468   -2.112349   -0.628990
H      -2.767015    0.326067   -0.775776
