14

O       0.056207    1.399001   -0.099365
C       0.077239    0.014316    0.007015
C       0.304847   -0.640191    1.427125
C      -1.079768   -1.273974    1.323823
N      -2.029295   -0.161329    1.136455
C      -1.298139   -0.700679   -0.046211
C      -1.982168   -1.238933   -1.171912
N      -2.519968   -1.675962   -2.099607
H      -0.656182    1.706290    0.477798
H       0.773775   -0.366858   -0.741205
H       1.119213   -1.366886    1.420910
H       0.436091    0.063521    2.251603
H      -1.414661   -2.232616    1.698305
H      -2.976285   -0.538037    1.115771
