18

C      -0.148158    1.569545   -0.108778
C      -0.024964    0.053991   -0.033273
O      -1.263014   -0.585206   -0.239298
C       1.206135   -0.521251   -0.789135
O       1.903066   -0.731161    0.458662
C       0.693016   -0.532851    1.209541
C       0.898867    0.316982    2.463423
C       1.666480   -0.385436    3.489821
N       2.265563   -0.944526    4.304066
H       0.810810    2.061199    0.076657
H      -0.475359    1.867771   -1.112485
H      -0.882678    1.941156    0.612234
H      -1.727407   -0.139764   -0.955735
H       0.980131   -1.464725   -1.300936
H       1.757758    0.148846   -1.457397
H       0.231023   -1.490832    1.483463
H       1.418678    1.245719    2.209649
H      -0.079874    0.583069    2.880274
