18

C      -0.128130    1.604787   -0.124749
C       0.029402    0.117213   -0.043031
C       1.036256   -0.747287   -0.817807
C       2.298279   -0.730521    0.115189
C       1.602191   -0.920879    1.468942
C       0.298502   -0.639582    1.280699
C      -0.716194   -1.632259    0.755896
C      -0.094194   -1.817134   -0.636989
N      -1.170571   -0.795008   -0.375905
H       0.801999    2.106765    0.163158
H      -0.390865    1.913078   -1.141785
H      -0.919040    1.946277    0.550745
H       1.214619   -0.517189   -1.872744
H       2.998676   -1.560233   -0.035844
H       2.869125    0.193500   -0.049772
H       1.964529   -1.660510    2.176290
H      -1.344324   -2.384456    1.220892
H      -0.289308   -2.687755   -1.254562
