17

O       0.088426    1.334386   -0.239519
C       0.069841    0.009260    0.235863
C      -1.341471   -0.584264    0.101309
N      -1.874629   -0.441540   -1.311841
C      -2.211318   -1.889345   -1.319956
C      -0.941465   -2.667515   -1.255730
C      -1.537398   -2.116177    0.021924
C      -2.258418    0.009709    1.075030
N      -2.994543    0.467223    1.840342
H      -0.223892    1.289603   -1.153005
H       0.770265   -0.635695   -0.312112
H       0.378152    0.033405    1.285151
H      -2.712332    0.132052   -1.311272
H      -3.146835   -2.255161   -1.722560
H      -1.044541   -3.743922   -1.347887
H      -0.036635   -2.255560   -1.691324
H      -1.811464   -2.737634    0.862782
