20

C      -0.095738    1.442194    0.011444
C       0.011411   -0.059513   -0.083032
C       0.784092   -0.678972   -1.181572
N       1.346779   -0.602029    0.238729
C       1.181234   -2.098148    0.336887
C       0.707675   -2.181433   -1.117190
C      -0.269119   -3.104966   -1.805124
C       1.198279   -3.107148   -2.175811
O       1.606892   -2.509856   -3.371887
H       0.809603    1.916672   -0.377116
H      -0.953624    1.808292   -0.562551
H      -0.219985    1.757718    1.052421
H      -0.850281   -0.610329    0.297192
H       1.214163   -0.112911   -2.001012
H       2.148216   -2.574920    0.518354
H       0.471767   -2.409043    1.112813
H      -0.664514   -3.951628   -1.252364
H      -0.957044   -2.657008   -2.515797
H       1.798336   -3.962462   -1.859372
H       1.327361   -3.075359   -4.099291
