20

O      -0.195798    0.046789   -0.425696
C      -0.068460    1.195342   -0.059663
N       1.113466    1.802107    0.238553
C       2.404667    1.136859    0.156834
C       3.411495    1.949757   -0.668055
C       4.794933    1.286025   -0.621132
C       5.204627    1.018265    0.828241
O       4.234698    0.237869    1.508566
C       2.972617    0.870555    1.562440
H      -0.925088    1.887266    0.067847
H       1.087158    2.766163    0.533884
H       2.215378    0.174539   -0.326023
H       3.055461    2.056526   -1.697616
H       3.481562    2.964270   -0.246958
H       4.767233    0.332783   -1.162066
H       5.544520    1.918039   -1.110349
H       6.139425    0.453269    0.880552
H       5.357074    1.975223    1.358656
H       3.042648    1.826960    2.113973
H       2.308132    0.205476    2.120280
