21

C      -0.030340    1.508158   -0.001368
C       1.277864    0.737850    0.032695
C       2.067707    0.585231    1.325005
O       1.950856   -0.720152    1.880206
C       0.623014   -0.985942    2.294722
C      -0.363358   -0.974672    1.127350
C      -0.278440   -2.100693    0.052700
C      -0.431142   -1.019856   -1.057953
C      -0.043729    0.016201   -0.002823
H      -0.337135    2.030363    0.901580
H      -0.287665    2.024226   -0.921177
H       1.862730    0.733230   -0.882624
H       3.135270    0.738832    1.148322
H       1.741517    1.327336    2.073516
H       0.640239   -1.968717    2.777853
H       0.317822   -0.243315    3.053697
H      -1.386889   -0.863845    1.503647
H       0.718161   -2.549739    0.041392
H      -1.030932   -2.890882    0.096084
H       0.206432   -1.104389   -1.942536
H      -1.471885   -0.912884   -1.382427
