21

C      -0.089912    1.461200    0.123182
C      -0.027013   -0.066967    0.024394
C       1.268516   -0.436594   -0.768292
O       2.005378   -0.529454    0.503635
C       0.742035   -0.767894    1.140802
C      -0.079843   -0.461210    2.411011
C      -1.093106   -1.406243    1.619426
C       0.162183   -2.205207    1.198985
C      -1.419620   -0.726448    0.242560
H       0.894360    1.882343    0.350462
H      -0.424826    1.877702   -0.834338
H      -0.793530    1.804072    0.886827
H       1.263862   -1.399916   -1.289639
H       1.689587    0.339528   -1.412718
H       0.255451   -0.959648    3.323049
H      -0.353208    0.573578    2.619387
H      -1.913847   -1.875605    2.160011
H       0.107689   -2.798422    0.283029
H       0.606613   -2.788643    2.007924
H      -2.219247    0.017749    0.285032
H      -1.708329   -1.484631   -0.491293
