17

C       0.027031    1.512798    0.010090
C       0.040358    0.003033    0.002560
O       1.073888   -0.634833   -0.008163
C      -1.274908   -0.716151    0.011226
C      -1.376925   -2.057390    0.008375
C      -2.791270   -2.559810    0.018571
C      -3.645785   -1.278891    0.028719
C      -2.640108   -0.115737    0.023803
O      -2.929099    1.058894    0.030008
H       1.053763    1.880026    0.003301
H      -0.525849    1.894028   -0.854062
H      -0.511164    1.885572    0.887134
H      -0.514562   -2.715267   -0.000421
H      -2.981231   -3.195088   -0.855443
H      -2.967004   -3.199337    0.892472
H      -4.299908   -1.190900   -0.843410
H      -4.286307   -1.195527    0.911324
