17

C       0.034916    1.413603   -0.269401
C       0.016407   -0.084452    0.087794
C       0.733108   -0.369783    1.409621
O       2.086040    0.027411    1.241623
C      -1.386874   -0.607839    0.091406
N      -1.986762   -1.061784    1.160920
O      -3.262045   -1.424415    0.700429
C      -3.272635   -1.140308   -0.601350
N      -2.169535   -0.639100   -1.051477
H       1.067153    1.765658   -0.304355
H      -0.437700    1.586001   -1.239093
H      -0.504690    1.996435    0.484965
H       0.554230   -0.625560   -0.701402
H       0.245556    0.187640    2.223259
H       0.654855   -1.439034    1.651997
H       2.540017   -0.093936    2.080063
H      -4.182392   -1.353371   -1.143622
