21

O      -0.360682    0.042729   -0.332687
C      -0.192577    1.186741   -0.024348
C      -1.126589    2.305820    0.458944
C       0.149617    3.166210    0.776073
C       1.047121    2.084069    0.100350
C       0.164816    4.590757    0.209607
C      -0.587254    5.443366    1.260276
C      -0.495543    4.641819    2.594716
C       0.376355    3.408567    2.275077
H      -1.748780    2.701653   -0.351600
H      -1.779895    2.041973    1.296187
H       1.870040    1.672541    0.692928
H       1.441691    2.378057   -0.879022
H       1.205554    4.927207    0.123717
H      -0.274899    4.655589   -0.790831
H      -0.154422    6.443394    1.347839
H      -1.632891    5.581472    0.969650
H      -0.078985    5.235102    3.412868
H      -1.493604    4.326357    2.914787
H       0.134429    2.538175    2.893648
H       1.436501    3.637520    2.442052
