19

O      -0.089936    1.477906    0.283460
C       0.011740    0.056656    0.083855
C       0.700991   -0.248292   -1.169637
C       1.309217   -0.478330   -2.180884
C       0.659528   -0.660940    1.277806
C       2.059436   -0.139920    1.712519
C       1.406469    0.612469    2.905852
C       0.097368   -0.192114    2.667646
O      -1.137577    0.467429    2.716301
H       0.772911    1.865753    0.101012
H      -1.030167   -0.277245    0.018139
H       1.826135   -0.687168   -3.085084
H       0.596866   -1.736131    1.085818
H       2.720057   -0.950685    2.026594
H       2.604263    0.465600    0.982287
H       1.879924    0.515552    3.885674
H       1.254243    1.674360    2.694748
H       0.016291   -1.039366    3.354899
H      -1.072751    1.215392    2.107033
