20

C      -0.527918    1.389628    0.002870
C       0.090553   -0.006225   -0.028236
C       1.110162   -0.234853   -1.162634
C       1.917795   -1.457667   -0.696043
C       2.116868   -1.192671    0.807470
C       0.852490   -0.440426    1.237697
C       0.750309    0.218053    2.545851
O       0.065022   -1.011032    2.292006
H       0.235761    2.159743    0.159006
H      -1.034309    1.608742   -0.943035
H      -1.271719    1.481706    0.800766
H      -0.717570   -0.740946   -0.147980
H       0.629170   -0.375664   -2.134900
H       1.770609    0.638727   -1.249912
H       1.327256   -2.369534   -0.844299
H       2.859047   -1.586764   -1.236775
H       2.254763   -2.095414    1.407578
H       2.995964   -0.555123    0.960710
H       1.586344    0.152075    3.243341
H       0.113676    1.091041    2.679436
