18

O       0.293655    1.181603    0.302635
C       0.082741   -0.205746    0.207315
C      -1.402509   -0.542583   -0.032200
C      -1.773745   -2.021953   -0.277990
N      -2.782442   -2.451122    0.735969
C      -2.243882   -2.448855    2.085154
C      -3.066280   -1.292432    1.606037
C      -2.256061   -0.117340    1.166008
O      -2.260623    0.989360    1.659511
H      -0.378408    1.529026    0.906984
H       0.681158   -0.566622   -0.636780
H       0.440188   -0.738907    1.106363
H      -1.729828    0.076311   -0.875612
H      -2.224723   -2.153700   -1.263982
H      -0.907037   -2.688955   -0.220712
H      -2.699641   -3.150755    2.777081
H      -1.174288   -2.301427    2.224920
H      -4.074017   -1.137865    1.975338
