19

C      -0.138037    1.511996   -0.006704
C       0.075091    0.003952    0.047004
N       1.005546   -0.481796   -1.032633
C       1.972029   -1.266625   -0.227113
C       1.103414   -2.009025    0.841235
C       0.828340   -0.540533    1.281554
C       2.314001   -0.254802    0.903157
C       2.988511   -1.944586   -1.005830
N       3.797624   -2.510946   -1.606180
H       0.804221    2.056471    0.097541
H      -0.580251    1.798829   -0.965384
H      -0.816815    1.833636    0.790911
H      -0.900365   -0.492610   -0.035045
H       0.516908   -1.097584   -1.675952
H       0.267992   -2.607867    0.468393
H       1.695997   -2.574300    1.562254
H       0.424474   -0.297328    2.262874
H       3.020622   -0.659706    1.627465
H       2.604221    0.746246    0.583730
