16

N       0.017627    1.349839   -0.054174
C      -0.067371   -0.004039    0.040651
N      -1.137906   -0.697431    0.128386
C      -0.785290   -2.118356    0.007185
C       0.766970   -2.179597    0.024969
C       1.584674   -2.437953   -1.271104
C       1.856999   -0.922240   -1.272290
O       2.399119   -0.130880   -1.980753
N       1.153666   -0.740962   -0.036052
H       0.875378    1.782707    0.244599
H      -0.833848    1.858677    0.120135
H      -1.214341   -2.687861    0.837818
H      -1.210829   -2.535324   -0.916546
H       1.160042   -2.678401    0.913138
H       2.469501   -3.072666   -1.187480
H       0.992607   -2.756868   -2.133016
