16

O       0.053420    0.052731   -0.032232
C       0.024463    1.249464    0.008803
C      -1.191674    2.201023    0.026769
C      -0.388787    3.523276    0.022058
C       0.707741    3.259771   -1.061183
C       1.179686    2.255475    0.025668
N       0.641055    3.183975    1.102116
C      -1.102319    4.769431    0.111603
C      -1.685250    5.818736    0.177937
H      -1.831828    2.068304   -0.848348
H      -1.784140    2.081378    0.935672
H       0.400945    2.895884   -2.047155
H       1.390900    4.106384   -1.157238
H       2.191825    1.868835    0.112895
H       1.280521    3.979276    1.157376
H      -2.205237    6.742747    0.240560
