20

C      -0.012747    1.578290   -0.020282
C       0.033359    0.050309    0.034314
O       0.619217   -0.413754    1.249071
C      -1.351878   -0.569156   -0.007053
C      -2.222075   -0.443430   -1.284701
C      -2.682108   -1.910814   -1.085456
C      -1.478396   -2.133097   -0.106890
C      -0.339717   -2.786955   -0.734081
N       0.556910   -3.299660   -1.255226
H       0.999716    1.994276    0.015764
H      -0.483554    1.929553   -0.944448
H      -0.573441    1.974495    0.832283
H       0.607504   -0.324550   -0.827220
H       1.563994   -0.235574    1.216533
H      -1.907248   -0.243797    0.878562
H      -2.992214    0.329929   -1.294611
H      -1.604593   -0.334177   -2.181642
H      -3.629203   -1.982296   -0.546310
H      -2.723113   -2.554654   -1.964515
H      -1.703811   -2.646695    0.829652
