19

C       0.117830    1.618013   -0.012237
C       0.084350    0.099174    0.013656
C       1.019672   -0.701870   -0.940490
C       1.341794   -1.684428    0.240793
C       0.730666   -0.648203    1.210022
O       1.847694    0.078782    1.737475
C       3.009091   -0.727887    1.728628
C       2.796314   -1.799198    0.650732
O       3.625950   -2.570564    0.246324
H       1.127353    1.983284    0.191615
H      -0.197471    1.995319   -0.990955
H      -0.551988    2.044442    0.742242
H      -0.943752   -0.262303   -0.102548
H       0.561982   -1.158862   -1.819133
H       1.893690   -0.129907   -1.263913
H       0.860236   -2.657964    0.154127
H       0.078192   -0.982459    2.025489
H       3.886158   -0.108491    1.516372
H       3.173854   -1.229989    2.696556
