20

C      -0.204121    1.308282   -0.296915
C       0.140446   -0.142011   -0.154503
C       0.646601   -1.086996   -1.233781
C       0.115017   -2.196129   -0.303060
C      -0.527734   -3.447057   -0.836660
O      -1.594017   -3.131133   -1.714207
C       1.016035   -2.158957    0.949424
C       0.376011   -0.801477    1.171965
N      -0.849762   -1.151019    0.366192
H       0.701728    1.918013   -0.390241
H      -0.821023    1.479098   -1.185366
H      -0.762931    1.662093    0.575112
H       0.034368   -1.014825   -2.136323
H       1.710047   -1.091860   -1.496440
H       0.195432   -4.036640   -1.412885
H      -0.871007   -4.070362    0.004811
H      -2.163974   -2.520672   -1.229324
H       0.686034   -2.878795    1.704050
H       2.099994   -2.230448    0.813591
H       0.289584   -0.251820    2.103335
