20

C      -0.095224    1.537566    0.158559
C       0.031470    0.037961   -0.035355
C       1.219498   -0.524091   -0.878097
C       1.116854   -1.782277    0.019550
C       0.566402   -0.851431    1.134833
O       0.131721   -2.669246   -0.493343
C      -1.191520   -2.147963   -0.413895
C      -1.254736   -0.614743   -0.586449
H       0.848533    1.970434    0.508016
H      -0.364594    2.037184   -0.779662
H      -0.870070    1.779620    0.895633
H       1.071191   -0.671694   -1.951368
H       2.143448    0.034737   -0.699742
H       2.007577   -2.383970    0.209477
H       1.386428   -0.359154    1.665051
H      -0.137095   -1.259666    1.864970
H      -1.774290   -2.663355   -1.182974
H      -1.629490   -2.419116    0.557625
H      -2.138630   -0.238333   -0.056727
H      -1.371000   -0.338104   -1.641343
