19

C       0.002394    1.610977    0.073658
C       0.063015    0.077609   -0.007225
N       0.837663   -0.397380   -1.133370
C       0.428292   -0.252746   -2.506772
C       1.855078   -1.266248   -0.743224
O       2.601059   -1.846771   -1.509337
C       1.813104   -1.312383    0.728292
C       0.785973   -0.561657    1.168748
N       0.315274   -0.375796    2.443318
H       1.010060    2.027829    0.155678
H      -0.471841    2.023027   -0.821363
H      -0.589785    1.943847    0.933223
H      -0.966954   -0.314585   -0.052223
H       0.429175    0.795307   -2.830970
H       1.149159   -0.807463   -3.111125
H      -0.575424   -0.665893   -2.682909
H       2.512952   -1.892340    1.311371
H       0.939244   -0.620831    3.196686
H      -0.216720    0.461627    2.621339
