15

C       0.090115   -1.145803    0.088398
C      -0.003832    0.052036    0.027244
C      -0.069727    1.466880   -0.052334
N      -1.140251    2.163681    0.067313
C      -0.694106    3.535045   -0.011071
C       0.513624    3.988436    0.857193
C       1.347741    2.789797    1.250361
N       1.175717    2.219349   -0.174020
C       0.678956    3.587109   -0.586521
H       0.159811   -2.204520    0.140286
H      -1.438279    4.290084   -0.227382
H       0.514270    4.972448    1.308433
H       2.399944    3.039061    1.397491
H       1.005292    2.126263    2.051406
H       1.042212    4.088487   -1.474854
