17

C      -0.199109    1.538158    0.033625
C       0.082104    0.040428    0.014432
C       0.945510   -0.474387   -1.163980
C       1.542541   -1.768688   -0.568590
O       1.703221   -1.484284    0.823216
C       0.877415   -0.460541    1.208158
N       0.795117   -0.003313    2.378628
C       0.217699   -0.684697   -2.407231
N      -0.365408   -0.858946   -3.389654
H       0.733126    2.110890    0.007803
H      -0.812047    1.829634   -0.823828
H      -0.725651    1.801524    0.953045
H      -0.868179   -0.509992    0.004947
H       1.754502    0.241873   -1.350835
H       0.860409   -2.616368   -0.700979
H       2.518507   -2.026014   -0.983261
H       1.410701   -0.510054    3.016525
