17

C      -0.119515    1.452370   -0.037970
N       0.017851    0.003848    0.024403
C      -1.081522   -0.804509    0.041004
C      -1.262904   -2.128184    0.350140
C      -2.642466   -2.332582    0.092522
C      -3.423711   -3.606303    0.242701
O      -2.781156   -4.710737   -0.377538
N      -3.247093   -1.250334   -0.340183
O      -2.238284   -0.257241   -0.361453
H       0.875170    1.890134   -0.142221
H      -0.710981    1.726541   -0.913663
H      -0.605479    1.878989    0.850193
H       0.790334   -0.342708    0.570269
H      -0.535895   -2.843285    0.693927
H      -3.501557   -3.872466    1.302285
H      -4.441522   -3.444359   -0.136759
H      -2.686737   -4.501612   -1.312839
