20

C      -0.122527    1.677244   -0.192774
C      -0.029508    0.224906    0.289224
C      -1.345135   -0.526916    0.114300
C      -1.784030   -0.936611   -1.310299
O      -1.998768   -2.305982   -0.901936
C      -1.442415   -2.046949    0.416666
C      -0.177431   -2.874281    0.595273
O      -0.482073   -4.245164    0.422033
H       0.829329    2.200155   -0.061332
H      -0.383992    1.727772   -1.255601
H      -0.888039    2.230286    0.362554
H       0.772123   -0.287005   -0.256055
H       0.259178    0.210084    1.347918
H      -2.140886    0.017963    0.631816
H      -2.701069   -0.481950   -1.700658
H      -0.996201   -0.855320   -2.072416
H      -2.163858   -2.326756    1.194380
H       0.596562   -2.547339   -0.116310
H       0.224633   -2.756063    1.607644
H      -0.965625   -4.297442   -0.412429
