16

C      -0.118178    1.108466   -0.839933
C      -0.102190   -0.174400   -0.021941
O       1.047940   -0.977674   -0.324752
C       0.917837   -1.861395   -1.321083
N       1.921279   -2.520497   -1.712959
C       1.769181   -3.502523   -2.766725
C       0.423287   -3.648017   -3.354327
N      -0.648169   -3.722894   -3.781900
H       0.804801    1.673383   -0.684129
H      -0.215198    0.893900   -1.908678
H      -0.964550    1.734057   -0.539433
H      -0.025750    0.041034    1.046705
H      -1.015855   -0.760738   -0.182692
H      -0.099067   -1.957195   -1.725419
H       2.467161   -3.262566   -3.578519
H       2.079925   -4.484059   -2.387004
