14

O       0.409879    1.122526    0.635780
C      -0.014915   -0.072584    0.050722
C      -1.530767   -0.181267   -0.181091
C      -1.689156   -1.105333   -1.395425
O      -2.701288   -1.656177   -1.732250
C      -0.335718   -1.209602   -2.123393
C       0.561045   -0.258824   -1.357129
O       1.514433    0.362810   -1.755768
H       1.175436    1.412704    0.116152
H       0.315477   -0.943898    0.647388
H      -2.107097   -0.539550    0.673243
H      -1.919313    0.808756   -0.455304
H       0.032117   -2.240050   -2.035236
H      -0.400956   -0.979705   -3.189379
