18

O       0.158451    1.344287   -0.270072
C       0.063385   -0.046320   -0.014438
C       0.824011   -0.437009    1.264459
C       0.046914   -0.071125    2.545850
C      -1.240469   -0.869768    2.598403
O      -1.579297   -1.549243    3.540672
C      -2.061932   -0.832370    1.340845
N      -2.256392    0.507234    0.733523
C      -1.414354   -0.466770    0.038641
H      -0.603852    1.742930    0.173219
H       0.535824   -0.548861   -0.865779
H       1.015816   -1.517760    1.253453
H       1.794690    0.066683    1.251341
H       0.621572   -0.283698    3.449402
H      -0.191033    0.998975    2.533209
H      -2.900867   -1.522181    1.337641
H      -3.180494    0.565952    0.316479
H      -1.820147   -0.933700   -0.854668
