20

C       0.063603    1.533649    0.102630
C       0.008686    0.019486   -0.129991
N       0.728348   -0.422183   -1.302762
C       0.273232   -0.841804   -2.531974
O      -0.833811   -0.892421   -3.002676
C       1.710181   -1.205028   -2.981248
C       2.121876   -0.749761   -1.572579
C       3.331346    0.016071   -1.142317
C       3.079087   -1.394924   -0.621643
H       1.088972    1.879502    0.263224
H      -0.344852    2.068526   -0.759203
H      -0.524862    1.802035    0.985822
H       0.393261   -0.516378    0.747525
H      -1.028716   -0.299362   -0.274463
H       1.856035   -2.265009   -3.198533
H       2.091687   -0.598855   -3.805360
H       4.126700    0.166396   -1.865187
H       3.207413    0.834894   -0.441745
H       2.785901   -1.495890    0.418449
H       3.702150   -2.204410   -0.987426
