19

C      -0.026797    1.515757    0.068178
C      -0.059329    0.010186    0.055898
C      -1.360436   -0.836889   -0.006230
C      -0.480780   -1.976885    0.565065
C       0.676675   -2.199797   -0.434228
C       1.688827   -1.385961    0.366409
C       0.478538   -0.914557    1.225715
C       0.993165   -0.749082   -0.803976
O       1.565128   -0.348870   -1.992531
H       0.986853    1.883280    0.264064
H      -0.339095    1.924316   -0.899941
H      -0.692332    1.925382    0.835396
H      -2.100840   -0.491824    0.723650
H      -1.845107   -0.983884   -0.978601
H      -0.897413   -2.833253    1.094605
H       0.862639   -3.020910   -1.115124
H       2.735076   -1.564434    0.573558
H       0.475419   -0.628877    2.275144
H       0.972713   -0.587870   -2.714462
