17

C       0.313959    1.424861    0.103330
C      -0.074787   -0.062773    0.016777
C      -1.555056   -0.256961    0.277006
O      -2.289242   -0.928839   -0.403170
C       0.330681   -0.669560   -1.306398
O       1.688820   -1.049894   -1.448587
C       0.716911   -2.094505   -1.475166
C       0.673801   -3.049299   -0.323271
O       1.133601   -2.833557    0.770180
H       1.397108    1.534145    0.011564
H      -0.159366    2.008517   -0.693324
H       0.009039    1.851981    1.063505
H       0.452285   -0.601217    0.815936
H      -1.934030    0.275752    1.179036
H      -0.102161   -0.193641   -2.188006
H       0.550258   -2.549663   -2.451734
H       0.149107   -4.001404   -0.555796
