18

C      -0.403193    1.445546    0.225907
C      -0.101623   -0.034861    0.243374
O       0.930239   -0.504613    0.655054
C      -1.212609   -0.946621   -0.338227
C      -1.062725   -0.898948   -1.862029
O      -1.492179   -0.011657   -2.552367
C      -1.111832   -2.360277    0.187057
C      -1.914257   -2.789014    1.355823
N      -2.232005   -3.299860    0.009037
H       0.498255    2.016356    0.451330
H      -0.819006    1.735576   -0.744238
H      -1.168676    1.665831    0.979966
H      -2.183944   -0.493926   -0.106370
H      -0.491917   -1.749231   -2.293154
H      -0.134202   -2.811704    0.045289
H      -1.516196   -3.527747    2.044689
H      -2.584786   -2.063234    1.809751
H      -3.046258   -2.810949   -0.357517
