18

C       0.582468    1.236377    0.453559
N      -0.287981    0.437693   -0.401427
C       0.400841   -0.339007   -1.390319
C       1.223651   -1.601574   -1.059787
C       0.372901   -2.720337   -0.616897
N       0.452741   -2.452951   -2.066156
C      -0.448928   -1.265462   -2.327445
C      -1.851534   -1.453791   -1.979970
N      -2.954017   -1.606455   -1.665822
H       1.326847    0.651555    1.019678
H       1.125996    1.963233   -0.160725
H      -0.027007    1.794960    1.168674
H      -0.906538   -0.141792    0.155248
H       0.997728    0.343114   -2.003599
H       2.306874   -1.648282   -1.017006
H       0.870598   -3.644811   -0.343243
H      -0.565445   -2.546920   -0.095184
H      -0.375156   -0.981450   -3.378647
