15

C      -0.027474    1.491141    0.067604
C       0.002331    0.005022   -0.064780
C      -0.022511   -0.805396   -1.172099
C       0.028154   -2.144228   -0.697176
C       0.082545   -2.132115    0.679418
N       0.065999   -0.822206    1.045739
N       0.024534   -3.331208   -1.496164
O      -0.027394   -3.192193   -2.715429
O       0.073851   -4.413372   -0.913050
H       0.868999    1.877191    0.567642
H      -0.078268    1.949348   -0.921970
H      -0.897969    1.835379    0.638978
H      -0.070764   -0.500147   -2.203686
H       0.129778   -2.943567    1.384240
H       0.096040   -0.496813    1.997738
