15

N      -0.047789    1.339963   -0.098485
C       0.069305   -0.006981    0.104870
O       1.121924   -0.560643    0.352459
N      -1.153315   -0.702888    0.044232
C      -2.449963   -0.186540    0.160703
N      -3.343347   -1.124559    0.129577
C      -2.650228   -2.315980   -0.013680
C      -1.299256   -2.089879   -0.057899
N      -0.216767   -2.919200   -0.276739
H       0.829725    1.831073   -0.160606
H      -0.809174    1.700618   -0.649257
H      -2.626907    0.862869    0.334829
H      -3.160971   -3.263775   -0.078875
H      -0.410420   -3.888120   -0.071451
H       0.638615   -2.578261    0.143961
