14

N       0.057401    1.351080    0.066148
C       0.026156   -0.025622    0.104811
O       1.066348   -0.688023    0.193111
C      -1.246741   -0.700442    0.080502
C      -1.400101   -2.083061    0.022021
O      -0.420803   -2.978224    0.012845
N      -2.710822   -2.438369   -0.033959
C      -3.369875   -1.294518    0.002694
N      -2.555418   -0.213773    0.054211
H       0.979581    1.736749   -0.078282
H      -0.685402    1.840854   -0.407730
H       0.404048   -2.449829    0.095132
H      -4.445825   -1.199892   -0.004909
H      -2.850424    0.734552    0.213592
