17

C       0.084783    1.535782    0.160654
O       1.514183    1.429426   -0.138408
C       1.275399    0.207455   -0.904246
C       1.558947   -1.222455   -0.402728
C       0.792272   -0.832971    0.893994
C      -0.048262    0.043233   -0.133684
C      -0.793901   -1.051601   -0.889069
O      -0.284417   -1.281377   -2.215899
C       0.358660   -1.948966   -1.119980
H      -0.094844    1.875802    1.185201
H      -0.417057    2.200383   -0.554061
H       1.322582    0.409653   -1.972391
H       2.522101   -1.734591   -0.416355
H       0.254635   -1.630358    1.412769
H       1.374848   -0.234289    1.593101
H      -1.807491   -1.383853   -0.694498
H       0.301690   -3.032731   -1.123223
