21

C       0.655832   -0.759426   -1.377969
C      -0.039204   -0.370097   -0.072350
C       0.588790   -1.021707    1.181290
C      -0.074024   -0.515438    2.477634
C       0.756067   -0.787194    3.731540
C      -0.002893   -0.797039    5.044216
O       1.951184   -0.960619    3.677518
C       0.523052   -2.481964    1.119705
C       0.429683   -3.679930    1.071085
H       0.613860   -1.840636   -1.537031
H       0.180522   -0.270472   -2.233628
H       1.710679   -0.463727   -1.366624
H       0.003023    0.718199    0.059619
H      -1.101297   -0.639960   -0.119964
H       1.646590   -0.734397    1.234461
H      -0.199761    0.576014    2.421839
H      -1.080799   -0.931279    2.592909
H      -0.662898    0.073830    5.122972
H      -0.644323   -1.685651    5.083766
H       0.695078   -0.818150    5.881924
H       0.373504   -4.739420    1.029596
