17

C      -0.100392    1.375378    0.109665
O      -0.015234   -0.031099    0.062876
C      -1.265452   -0.647357    0.031219
C      -1.076003   -2.161857    0.135159
O      -0.136299   -2.683936    0.691147
N      -2.100614   -2.881063   -0.433267
C      -2.162225   -4.321058   -0.294493
C      -3.377117   -4.765587    0.400461
N      -4.349635   -5.104313    0.923773
H       0.921883    1.757157    0.144668
H      -0.604792    1.785923   -0.779349
H      -0.642815    1.719728    1.003958
H      -1.895112   -0.334267    0.884370
H      -1.823188   -0.390467   -0.887421
H      -2.865522   -2.404476   -0.882811
H      -2.112396   -4.823090   -1.268187
H      -1.275200   -4.611938    0.277390
