12

N      -0.095988    1.340987    0.010858
C      -0.013386    0.069572    0.003412
N       1.146153   -0.712491   -0.008109
N       1.211028   -2.050667   -0.015839
C       0.072923   -2.674916   -0.012130
N      -1.169355   -2.086266   -0.001116
C      -1.211848   -0.791946    0.006235
C      -2.496918   -0.145858    0.017809
N      -3.541443    0.349628    0.027061
H       0.815747    1.799830    0.007643
H       2.046050   -0.252380   -0.011228
H       0.105908   -3.756291   -0.018255
