21

C      -0.050303    1.566612   -0.006676
C      -0.090685    0.037931   -0.064710
C       0.764975   -0.534068   -1.212474
C       0.792648   -2.028785   -1.263420
N       1.763676   -2.775153   -0.773514
C       1.384002   -4.076795   -0.993114
C       0.172038   -4.120672   -1.624200
N      -0.206028   -2.804438   -1.800018
C      -1.453001   -2.366999   -2.394971
H       0.973219    1.928712    0.139511
H      -0.427614    2.010883   -0.934941
H      -0.660239    1.949510    0.817250
H       0.269867   -0.384599    0.879948
H      -1.129474   -0.299118   -0.174215
H       0.418891   -0.116651   -2.167708
H       1.801976   -0.209390   -1.086151
H       2.008180   -4.905185   -0.693677
H      -0.446630   -4.933156   -1.969131
H      -2.265940   -2.340919   -1.660676
H      -1.334751   -1.367728   -2.817339
H      -1.733567   -3.048397   -3.201818
