21

C      -0.153153    1.617492   -0.123235
C       0.045643    0.108707   -0.032286
C       1.157834   -0.563951   -0.907918
C       1.783244   -1.199335    0.342821
C       2.238121   -2.624093    0.458586
C       2.174293   -0.141675    1.307438
C       0.696992   -0.474071    1.231207
C       0.006629   -1.104955    2.357793
O       0.556432   -1.649978    3.292464
H       0.779574    2.160926    0.059272
H      -0.514580    1.904244   -1.116755
H      -0.888093    1.962244    0.612349
H      -0.911007   -0.394466   -0.211663
H       0.759076   -1.296614   -1.613255
H       1.814636    0.122541   -1.453499
H       3.234197   -2.751167    0.017192
H       2.291228   -2.926977    1.508361
H       1.555361   -3.305946   -0.059832
H       2.640331   -0.488153    2.223938
H       2.510252    0.832403    0.960764
H      -1.105881   -1.089866    2.284112
