21

C       0.337094    1.517921    0.091175
C      -0.096146    0.062313   -0.128249
C       0.522348   -0.576908   -1.356031
C       0.082365   -0.094638   -2.758540
C       0.873205   -1.061490   -3.627993
C       1.335924   -2.073801   -2.867035
C       2.749800   -1.895134   -2.295436
C       1.937248   -1.271510   -1.098925
C       0.702680   -2.049209   -1.464381
H       1.422721    1.589359    0.212871
H       0.056857    2.150363   -0.757442
H      -0.132574    1.937889    0.985980
H       0.151640   -0.531611    0.759695
H      -1.189649    0.018398   -0.226186
H      -1.016225   -0.115284   -2.829732
H       0.392457    0.927321   -3.010715
H       1.426210   -0.688859   -4.486341
H       3.260104   -2.798036   -1.938809
H       3.441848   -1.273594   -2.871187
H       2.353520   -1.174885   -0.098361
H       0.198520   -2.850285   -0.938125
