14

C       0.086945    1.473046   -0.006107
C       0.009752   -0.020712    0.001836
N      -0.117040   -0.653763   -1.110660
N      -0.183080   -2.011623   -1.054160
C      -0.130356   -2.807348    0.063434
O      -0.193432   -4.002644    0.053085
O       0.004884   -2.111792    1.236986
C       0.081599   -0.727343    1.290840
N       0.206034   -0.120926    2.391792
H       1.023759    1.810276    0.447690
H       0.019616    1.838670   -1.031434
H      -0.721123    1.901231    0.594694
H      -0.282165   -2.478353   -1.941466
H       0.237591   -0.778418    3.172592
