19

C      -0.182720    1.677057   -0.239634
C      -0.085353    0.181346    0.027636
C       1.055907   -0.536348   -0.801064
C       1.968180   -0.497437    0.489696
O       2.800732    0.644521    0.572252
C       0.661799   -0.315044    1.231694
C      -0.138832   -1.019562    2.021096
C      -1.545945   -0.921137    1.452038
O      -1.385848   -0.394002    0.123860
H       0.811158    2.130311   -0.243403
H      -0.656957    1.851094   -1.211265
H      -0.789441    2.163386    0.529973
H       0.771564   -1.555367   -1.068565
H       1.449615   -0.001750   -1.671374
H       2.526400   -1.412514    0.721319
H       3.485314    0.554669   -0.099125
H       0.129380   -1.694708    2.824354
H      -2.015005   -1.912166    1.386702
H      -2.222131   -0.278797    2.039057
