21

C       0.019436    1.478237    0.055815
C      -0.044601   -0.011254   -0.012613
C      -0.056330   -0.815150   -1.084602
C      -0.011121   -2.264287   -0.587163
C      -0.862896   -2.098684    0.695487
C       0.000498   -0.929417    1.224109
C       1.428643   -1.538630    1.203010
C       1.633567   -3.029191    1.364542
C       1.421129   -2.436641   -0.010333
H       0.936573    1.817194    0.555892
H      -0.004249    1.927378   -0.941464
H      -0.817310    1.890678    0.634383
H      -0.007934   -0.514874   -2.124515
H      -0.327459   -3.028269   -1.298676
H      -1.880775   -1.779644    0.465106
H      -0.906715   -2.975131    1.344520
H      -0.301292   -0.469899    2.167380
H       2.261570   -0.874559    1.407969
H       2.648757   -3.341876    1.591861
H       0.883452   -3.655120    1.833306
H       2.247076   -2.438123   -0.713251
