16

C       0.347060    1.448826   -0.288790
C      -0.017616   -0.002828   -0.052790
O       0.804181   -0.921011   -0.880656
C       1.376500   -1.473823    0.245619
N       2.318137   -2.287096    0.387903
C       0.535717   -0.680830    1.227750
O       1.239224    0.160116    2.102472
C      -1.479017   -0.275034   -0.362749
O      -2.336983   -0.362500    0.474358
H       1.406700    1.604688   -0.079320
H       0.136804    1.733548   -1.324106
H      -0.234135    2.089762    0.380277
H       2.712864   -2.583274   -0.506144
H      -0.227954   -1.270541    1.748452
H       2.008943   -0.330636    2.413333
H      -1.692452   -0.383482   -1.449088
