17

O      -0.116033    1.459344   -0.151221
C      -0.066126    0.059325   -0.067337
C      -1.452181   -0.545503   -0.063392
C      -2.222937   -0.750492   -1.326469
C      -1.603197   -1.954065   -0.608678
C      -0.420604   -2.586518   -1.221185
C       0.709423   -1.919391   -1.512365
C       0.846233   -0.500703   -1.172398
O       1.665104    0.245578   -1.682240
H       0.655245    1.698702   -0.691057
H       0.427987   -0.252020    0.874596
H      -2.032228   -0.308635    0.822537
H      -3.301690   -0.650573   -1.288805
H      -1.770335   -0.460834   -2.268679
H      -2.294072   -2.624201   -0.109560
H      -0.506193   -3.637608   -1.487352
H       1.530650   -2.379502   -2.050997
