22

C       0.045732    1.545777    0.172636
C      -0.060706    0.020339    0.080129
C      -1.495795   -0.507321   -0.093076
C      -2.148279   -0.080911   -1.415798
C      -1.509875   -2.036263    0.020681
N      -1.063717   -2.602764    1.329934
C      -2.269221   -3.463541    1.464235
C      -2.864349   -2.732411    0.251809
O      -3.940258   -2.686833   -0.266840
H       1.080637    1.853547    0.351990
H      -0.287874    2.036836   -0.746493
H      -0.562827    1.933721    0.997207
H       0.555349   -0.341258   -0.756024
H       0.355809   -0.423914    0.991589
H      -2.098557   -0.118608    0.739811
H      -3.142797   -0.522885   -1.520293
H      -2.252104    1.005688   -1.475965
H      -1.543563   -0.405740   -2.271615
H      -0.996638   -2.475258   -0.851017
H      -0.197521   -3.124610    1.275803
H      -2.119747   -4.533942    1.265377
H      -2.807243   -3.355945    2.412393
