18

O       0.119080    1.433314   -0.063686
C       0.087115    0.020662    0.002820
C       0.447023   -0.509499    1.417767
O      -0.755450   -0.431904    2.213782
C      -1.791685   -0.272175    1.365464
N      -2.978219    0.068045    1.633914
C      -3.642319    0.229463    0.320951
C      -2.509093    0.344244   -0.755578
C      -1.375741   -0.431041   -0.075993
H       1.023083    1.729565    0.080358
H       0.734256   -0.432206   -0.760095
H       0.787715   -1.551777    1.378781
H       1.214071    0.095885    1.909469
H      -4.294535   -0.633022    0.126002
H      -4.284495    1.114875    0.342600
H      -2.801215   -0.056387   -1.728760
H      -2.216243    1.389057   -0.882480
H      -1.391119   -1.496113   -0.344657
