17

C       0.199291    1.564180    0.273423
C       1.353063    0.680638    0.016186
C       1.704193   -0.154643    1.236446
O       2.222909    0.542288    2.367298
C       1.361283    0.828955    3.377822
N       0.140759    0.544358    3.525030
C      -0.563245   -0.252438    2.525088
C       0.225240   -0.615722    1.264775
N      -0.077995    0.146486   -0.009108
H       0.016259    1.972638    1.262974
H      -0.103465    2.213653   -0.541977
H       1.955319    0.748453   -0.883101
H       2.409506   -0.958010    1.019024
H       1.889668    1.393444    4.144146
H      -0.897421   -1.167320    3.028809
H      -1.479513    0.281071    2.243694
H       0.132335   -1.678701    1.037050
