20

C      -0.058917    1.657182    0.107700
C       0.031924    0.139783    0.032675
C       1.071291   -0.531299   -0.939115
C       1.662973   -1.295779    0.252347
C       2.155665   -0.327648    1.286256
C       0.680841   -0.609970    1.201465
O      -1.284970   -0.427435   -0.111993
C      -1.929339   -0.239447   -1.277256
N      -3.120933   -0.639595   -1.410971
H       0.918446    2.095890    0.323754
H      -0.414390    2.086926   -0.834541
H      -0.754520    1.949397    0.900193
H       0.575138   -1.179385   -1.663016
H       1.754128    0.141046   -1.469562
H       1.977045   -2.331377    0.233350
H       2.647748   -0.770380    2.146202
H       2.567352    0.635250    0.992964
H       0.112088   -1.018312    2.027125
H      -1.328254    0.258228   -2.048942
H      -3.448450   -0.433639   -2.352675
