19

O      -0.086039    1.397904   -0.006027
C      -0.004677    0.012783    0.003143
C      -1.343235   -0.753830    0.044313
C      -0.939209   -2.090959   -0.498096
C       0.185516   -1.944356   -1.512493
C       1.008063   -0.774189   -0.952459
C       1.807214   -1.229456    0.305302
C       0.574363   -0.870894    1.160324
C      -0.672330   -1.769171    0.967990
H       0.802690    1.760014    0.076405
H      -2.336606   -0.325107    0.053156
H      -1.715260   -2.830622   -0.668467
H       0.791318   -2.850247   -1.627546
H      -0.238185   -1.701944   -2.494804
H       1.541899   -0.198473   -1.711777
H       2.161571   -2.264659    0.314535
H       2.651664   -0.567936    0.525741
H       0.686103   -0.484882    2.175232
H      -1.126508   -2.368766    1.747931
