17

N       0.089663    1.034809    0.553725
C      -0.119611   -0.188248   -0.010872
C       1.140349   -0.948590   -0.300091
O       2.236867   -0.539566   -0.002744
N      -1.217278   -0.760376   -0.347638
C      -2.448225   -0.063238   -0.096165
C      -3.742059   -0.810758   -0.473172
O      -4.292090   -0.619601    0.849876
C      -3.046956   -0.104636    1.344346
H       1.037604    1.234632    0.836295
H      -0.654075    1.534496    1.007231
H       0.960430   -1.915420   -0.804603
H      -2.421822    0.960022   -0.497867
H      -4.375326   -0.364192   -1.247240
H      -3.564190   -1.868828   -0.700629
H      -2.531672   -0.815245    2.004627
H      -3.173654    0.852810    1.865824
