17

C      -0.673500    1.411997   -0.092611
C      -0.011462    0.044428   -0.029311
C       1.323373   -0.182042   -0.814427
C       1.950992   -0.807779    0.457504
O       3.040378   -0.084134    1.018941
C       2.571412    0.838295    1.902599
O       3.243581    1.637211    2.469326
O       1.221393    0.720818    2.051008
C       0.716092   -0.369601    1.280365
H       0.019827    2.200727    0.211921
H      -1.009140    1.626594   -1.112289
H      -1.545870    1.461997    0.566883
H      -0.737034   -0.736242   -0.281213
H       1.267556   -0.830369   -1.690615
H       1.830020    0.745139   -1.094218
H       2.212006   -1.864759    0.417934
H       0.213875   -1.067955    1.952614
