18

C       0.083763    1.348685   -0.551772
C      -0.040185    0.002030    0.127175
O       0.336428   -1.112120   -0.734218
C       1.185518   -1.671596    0.275845
C       2.665648   -1.242888    0.114511
C       2.437130   -0.133154    1.201995
C       2.893098    1.223423    0.944706
N       3.278494    2.296336    0.749489
C       0.915789   -0.488147    1.246079
H       1.090585    1.531166   -0.930485
H      -0.612077    1.388536   -1.395879
H      -0.175589    2.154634    0.142218
H      -1.078072   -0.140756    0.461166
H       0.968011   -2.721161    0.487252
H       3.419943   -1.980077    0.395897
H       2.875481   -0.866755   -0.887219
H       2.887182   -0.448672    2.147966
H       0.483580   -0.577645    2.241233
