18

C       0.379607    1.347195    0.145669
C      -0.384379    0.085553   -0.265404
N       0.209271   -0.596909   -1.404395
C       1.004663   -1.699001   -1.265380
O       1.242914   -2.237075   -0.198450
C       1.542312   -2.189276   -2.527175
C       2.013341   -2.630892   -3.544658
C       2.566698   -3.144846   -4.790493
O       3.418542   -4.246190   -4.519845
H       1.404955    1.098037    0.432525
H       0.419334    2.073957   -0.672877
H      -0.110200    1.827585    0.998699
H      -0.392735   -0.636884    0.553273
H      -1.424631    0.330769   -0.508460
H       0.121625   -0.192182   -2.322748
H       1.732411   -3.430521   -5.452552
H       3.108022   -2.328857   -5.297597
H       3.759584   -4.561791   -5.362985
