18

C       0.113866    1.562575   -0.033518
C       0.059655    0.037830    0.033057
N       0.785707   -0.567263   -1.093972
C       1.261356   -1.901668   -0.727229
C       1.489097   -1.780193    0.773637
N       2.221439   -0.545718    1.163044
C       0.754349   -0.568247    1.242847
C       1.612902   -2.960243    1.578650
N       1.729270   -3.913700    2.224120
H       1.153713    1.896569   -0.008872
H      -0.342383    1.923445   -0.960857
H      -0.430809    2.012462    0.803238
H      -0.995635   -0.287913    0.088901
H       0.248048   -0.565517   -1.950582
H       0.533275   -2.713296   -0.893421
H       2.179354   -2.149265   -1.271459
H       2.609915   -0.677464    2.095188
H       0.268312   -0.540429    2.211671
