14

O       0.033522   -0.015523   -0.184891
C       0.097033    1.168885   -0.292935
O       1.029802    1.905857    0.367691
C       0.983125    3.286743    0.197278
C       1.124325    3.998754   -1.129825
C       2.095766    4.274847   -0.012432
O       1.542355    5.196338    0.927697
C       0.491517    4.250599    1.271751
H      -0.563417    1.790212   -0.923747
H       1.527274    3.376318   -1.923464
H       0.413761    4.759116   -1.442211
H       3.172167    4.178538   -0.077635
H      -0.512083    4.676988    1.166326
H       0.637361    3.859762    2.284241
