21

C      -0.014553    1.648316    0.086356
C      -0.022645    0.136889   -0.178896
C      -1.418884   -0.502633   -0.104753
C      -2.402677    0.095078   -1.114913
C      -1.486941   -2.060095   -0.002909
C      -0.239066   -2.914350   -0.027072
O      -2.038850   -1.941522    1.359588
C      -1.993859   -0.574768    1.317204
O      -2.322156    0.189453    2.170653
H       1.013767    2.019099    0.127542
H      -0.532686    2.204315   -0.700145
H      -0.500176    1.877673    1.038976
H       0.403618   -0.072642   -1.168933
H       0.636253   -0.347449    0.549229
H      -2.008166    0.006588   -2.133271
H      -3.369000   -0.417195   -1.078526
H      -2.582202    1.152788   -0.908878
H      -2.257133   -2.486361   -0.653493
H       0.516561   -2.551936    0.673431
H      -0.488377   -3.943912    0.245992
H       0.192941   -2.926141   -1.033133
