18

C      -0.112297    1.313279   -0.360495
C      -0.359737   -0.197553   -0.278923
O       0.740280   -0.862428    0.314013
C      -1.643171   -0.541558    0.487445
C      -2.932628    0.165312    0.073269
C      -3.292943   -0.091623   -1.320150
N      -3.561096   -0.301040   -2.424279
C      -1.739612   -1.821587    1.196876
O      -1.465434   -0.595040    1.906248
H       0.866440    1.487053   -0.813016
H      -0.863238    1.821019   -0.973568
H      -0.114655    1.763958    0.638607
H      -0.446321   -0.606004   -1.292306
H       0.708860   -0.646040    1.255763
H      -3.747402   -0.166940    0.723512
H      -2.830885    1.246044    0.217970
H      -2.718099   -2.254813    1.394680
H      -0.905789   -2.514614    1.146200
