17

C       0.067269    1.491860   -0.259588
C       0.000881    0.011535    0.113855
N      -1.356496   -0.517440    0.037887
C      -1.870388   -1.357049   -0.903365
C      -3.195940   -1.541208   -0.584844
C      -3.392163   -0.760467    0.579635
C      -4.647361   -0.615534    1.330876
O      -4.806203    0.051627    2.324638
N      -2.258786   -0.141786    0.944295
H       1.094439    1.854947   -0.161940
H      -0.259816    1.651862   -1.291141
H      -0.575218    2.075036    0.403683
H       0.618857   -0.594764   -0.553696
H       0.354613   -0.143328    1.136618
H      -1.257985   -1.746487   -1.701066
H      -3.918391   -2.150056   -1.104378
H      -5.486164   -1.199887    0.887325
