17

O      -0.021965    1.445256   -0.058146
C       0.018031    0.034110   -0.009004
C      -1.375216   -0.568785    0.031380
O      -2.022938   -0.179028   -1.177665
C      -3.317900   -0.551523   -1.300291
C      -4.109072   -1.273607   -0.453905
O      -5.356068   -1.406087   -1.002343
C      -5.340164   -0.764723   -2.194002
C      -4.122028   -0.218702   -2.439352
H      -0.595919    1.674079   -0.798052
H       0.565750   -0.387316   -0.866720
H       0.558229   -0.241664    0.902406
H      -1.333581   -1.665515    0.101063
H      -1.937354   -0.178416    0.891185
H      -3.960160   -1.736409    0.504663
H      -6.263441   -0.782945   -2.749338
H      -3.814034    0.346496   -3.303913
