23

C       0.120303    1.427752    0.206341
C      -0.211927   -0.051151   -0.033422
C       0.555179   -0.630142   -1.206548
C       1.989164   -1.155615   -1.187169
C       2.641246   -1.587054    0.119380
C       1.684914   -2.632093    0.759737
C       0.755192   -3.125290   -0.376998
C       0.842921   -2.085533   -1.490694
O       0.677011   -2.553359   -2.801789
H       1.182653    1.560288    0.435615
H      -0.101694    2.030402   -0.681310
H      -0.459469    1.835832    1.040403
H      -0.021905   -0.616097    0.882646
H      -1.288280   -0.151260   -0.229015
H       0.357225   -0.093483   -2.134067
H       2.633267   -0.824099   -1.994432
H       3.610159   -2.044600   -0.110241
H       2.844017   -0.753042    0.800318
H       2.238906   -3.459720    1.211384
H       1.104304   -2.179876    1.567484
H       1.117866   -4.067805   -0.801030
H      -0.267941   -3.303427   -0.025336
H      -0.267829   -2.639325   -2.967963
