20

C       0.582071    1.183158   -0.318074
N       1.327334   -0.026614    0.087263
C       1.282200   -0.034819    1.593938
C      -0.266390   -0.105147    1.618834
C      -0.195577   -0.000724    0.093870
C      -1.030147   -0.817753   -0.841975
C      -0.377364   -1.277580   -2.165754
C      -0.638344   -2.699343   -1.631663
O      -1.174516   -2.189080   -0.392001
H       0.611329    2.064510    0.320769
H       0.668073    1.393984   -1.380151
H       1.772509   -0.931719    1.976062
H       1.749464    0.847364    2.044234
H      -0.635042   -1.079514    1.940412
H      -0.815101    0.683197    2.142010
H      -2.019546   -0.349930   -0.957020
H      -0.904384   -1.001504   -3.079393
H       0.678166   -1.014978   -2.242904
H      -1.385829   -3.279354   -2.187280
H       0.247718   -3.322868   -1.467636
