17

C      -0.018559    1.462608    0.009147
C      -0.001124    0.007728   -0.002686
C       0.013563   -1.197579   -0.012754
C       0.031657   -2.636288   -0.025141
C       0.694929   -3.628411    0.971194
N       0.056178   -4.590573   -0.042164
C      -1.151203   -3.643233    0.027488
C       0.588634   -3.611696   -1.099872
H       0.997736    1.871938    0.008106
H      -0.537604    1.860687   -0.869801
H      -0.530065    1.846473    0.898762
H       1.786967   -3.672875    0.992738
H       0.269121   -3.700529    1.975417
H      -1.715137   -3.716560    0.961039
H      -1.807396   -3.701891   -0.844777
H       0.062618   -3.668100   -2.056470
H       1.672677   -3.654854   -1.233472
