22

C       0.492394    1.281111    0.586413
C       0.444148   -0.233985    0.384437
O       1.107313   -0.924901    1.442780
C      -0.988842   -0.746447    0.238213
C      -1.892640   -0.419455   -0.981680
N      -2.290040   -1.865316   -1.152485
C      -1.065859   -2.627468   -1.478756
C      -0.002533   -2.201409   -2.466109
C      -1.257547   -2.218099   -0.070073
H       1.525173    1.615100    0.717086
H       0.060949    1.811492   -0.269149
H      -0.077418    1.571405    1.478568
H       1.026721   -0.492669   -0.504869
H       0.657823   -0.697894    2.264865
H      -1.529034   -0.474899    1.154831
H      -2.773814    0.175860   -0.737123
H      -1.409705    0.024532   -1.858137
H      -1.348626   -3.669779   -1.627904
H       0.278472   -1.150664   -2.394590
H       0.903934   -2.796834   -2.315068
H      -0.353305   -2.381201   -3.488456
H      -1.481099   -2.957501    0.693568
