22

C       0.211320    1.411464    0.330496
C      -0.021955   -0.056247   -0.043693
C      -1.472971   -0.323359   -0.429582
O       0.768493   -0.457561   -1.155580
C       2.147476   -0.624064   -0.891791
C       2.786213   -1.312069   -2.067577
C       3.234374   -0.507763   -3.259462
C       4.257640   -1.117580   -2.334664
H       1.246269    1.595284    0.632949
H      -0.017818    2.059178   -0.522172
H      -0.433465    1.699951    1.166887
H       0.240508   -0.687370    0.823852
H      -1.753489    0.286539   -1.294324
H      -1.608701   -1.374868   -0.695638
H      -2.145995   -0.080552    0.398178
H       2.644402    0.345116   -0.719443
H       2.285149   -1.223778    0.025018
H       2.378435   -2.297214   -2.274275
H       3.108469   -0.938325   -4.246429
H       3.093058    0.567352   -3.222600
H       4.810458   -0.452027   -1.679326
H       4.831186   -1.968798   -2.683802
