17

O       0.231288    1.413972    0.122394
C       0.091726    0.023912    0.003751
C       0.649522   -0.545887   -1.319564
C      -0.636688   -0.741234   -2.131885
C      -1.752726   -0.766625   -1.382940
C      -1.315299   -0.624520    0.028685
C      -1.536652   -0.123484    1.473352
C      -0.089297   -0.722259    1.353639
O      -0.654167   -1.854571    0.618546
H      -0.025514    1.815612   -0.715861
H       1.364666    0.133039   -1.794789
H       1.144753   -1.510706   -1.180035
H      -0.615710   -0.903022   -3.205012
H      -2.760236   -0.934258   -1.740649
H      -1.640767    0.950716    1.623489
H      -2.213309   -0.723421    2.082003
H       0.624667   -0.937944    2.150085
