21

C      -0.057226    1.315656   -0.219560
O      -0.023959   -0.084569   -0.100074
C      -1.310546   -0.653715    0.018635
C      -1.162345   -2.167185    0.103757
C      -2.511588   -2.853102    0.232437
O      -3.358625   -2.660624   -0.932377
C      -3.328189   -4.064455   -1.256951
C      -2.545641   -4.388001    0.036682
O      -1.272071   -4.969566   -0.091634
H       0.974998    1.662589   -0.313575
H      -0.623017    1.638532   -1.108390
H      -0.512259    1.792814    0.663856
H      -1.819859   -0.264076    0.918744
H      -1.935926   -0.385914   -0.847954
H      -0.639306   -2.532999   -0.784026
H      -0.543933   -2.427219    0.970445
H      -3.031556   -2.505774    1.136055
H      -4.335568   -4.488049   -1.349860
H      -2.755711   -4.270913   -2.170633
H      -3.147013   -4.905492    0.794057
H      -1.374158   -5.923746   -0.155322
