23

C      -0.016057    1.515879   -0.048836
C       0.006962    0.006953    0.041916
C       1.299528   -0.746830   -0.176619
C       0.637076   -0.780336    1.184541
C       1.323896   -0.139201    2.356890
O       2.262576   -1.073152    2.885161
C      -0.247340   -1.990209    1.470145
C      -1.128835   -2.155279    0.213033
C      -1.267763   -0.730600   -0.364792
H       0.919245    1.964496    0.298204
H      -0.164832    1.838670   -1.086361
H      -0.834251    1.940553    0.545680
H       1.313354   -1.642689   -0.789391
H       2.203644   -0.151352   -0.258057
H       1.828559    0.788907    2.047715
H       0.576288    0.132364    3.121287
H       2.640277   -0.694366    3.684585
H       0.330019   -2.889445    1.704182
H      -0.868935   -1.771117    2.348677
H      -0.636443   -2.811371   -0.511495
H      -2.096594   -2.611396    0.437577
H      -2.128939   -0.216414    0.082558
H      -1.427397   -0.731243   -1.449462
