18

C      -0.043946    1.479983    0.035278
C       1.394916    1.940315   -0.044700
C       2.189025    0.903129   -0.325899
C       3.500076    0.627962    0.352196
C       3.061917   -0.035292    1.665020
C       1.845068   -0.575349    1.826259
C       0.918071   -0.856472    0.677441
C       1.341323   -0.304118   -0.627235
N      -0.007520    0.014810   -0.158323
H      -0.470548    1.733727    1.014315
H      -0.714953    1.904421   -0.724609
H       1.730547    2.892840    0.352324
H       4.175936   -0.026564   -0.213384
H       4.052857    1.546634    0.576118
H       3.757435    0.005497    2.499780
H       1.562065   -0.977280    2.795505
H       0.488086   -1.854955    0.716050
H       1.487451   -0.898276   -1.527026
