16

C       0.114727    1.624439   -0.061145
C      -0.069038    0.118410    0.112029
N      -1.451348   -0.261688    0.347753
C      -1.858454   -0.948763    1.441234
O      -1.150292   -1.370112    2.337473
C      -3.374032   -1.170703    1.477096
O      -4.121462   -0.770579    0.622547
C       0.484910   -0.681871   -1.069724
O       1.219571   -0.232671   -1.907683
H       1.160181    1.846032   -0.283892
H      -0.485198    1.998070   -0.897032
H      -0.181197    2.153396    0.847478
H       0.476396   -0.236590    0.998020
H      -2.179678    0.036924   -0.287715
H      -3.705183   -1.733823    2.370853
H       0.145547   -1.741690   -1.088926
