20

N      -0.056857    1.261393    0.121102
C      -0.035088    0.002198    0.025452
O      -1.183923   -0.692841   -0.034037
C      -1.098836   -2.119647    0.003138
C      -1.302252   -2.706282    1.438499
C      -2.594306   -3.507648    1.185726
C      -2.267146   -4.196503   -0.172230
C      -2.316326   -2.731681   -0.698378
C      -3.442783   -2.503312    0.352630
H       0.894796    1.622552    0.126418
H       0.862960   -0.629965   -0.031908
H      -0.153467   -2.433150   -0.455226
H      -0.466994   -3.336858    1.757130
H      -1.430916   -1.902345    2.167800
H      -3.013220   -4.058271    2.027820
H      -1.327140   -4.751526   -0.258936
H      -3.093998   -4.797483   -0.556121
H      -2.440160   -2.489907   -1.753508
H      -4.395247   -2.928919    0.029938
H      -3.584934   -1.491749    0.738462
