17

C      -0.018260    1.483080    0.010361
C       0.002395    0.028702    0.002491
C       0.018626   -1.178046   -0.003998
C       0.037766   -2.602851   -0.011458
C       1.255703   -3.303436   -0.022225
C       1.270665   -4.692860   -0.029499
C       0.075241   -5.409477   -0.026195
C      -1.138880   -4.725116   -0.015543
C      -1.161025   -3.335769   -0.008228
H       0.996751    1.895111    0.002901
H      -0.543419    1.878788   -0.866494
H      -0.526628    1.869470    0.901163
H       2.184255   -2.743843   -0.024779
H       2.219844   -5.218616   -0.037785
H       0.089735   -6.494160   -0.031886
H      -2.073678   -5.276090   -0.012915
H      -2.104135   -2.801141    0.000059
