15

O       0.265157    0.938667    0.852271
C      -0.032375    0.040693   -0.236027
C      -1.435703   -0.458490   -0.131334
C      -2.152985   -0.563952    1.023900
O      -1.880541   -0.268828    2.312368
N      -3.387656   -1.082361    0.674226
C      -3.341410   -1.261388   -0.680175
O      -4.421090   -1.759752   -1.311327
N      -2.210107   -0.905627   -1.208746
H      -0.250884    1.738694    0.699806
H       0.136412    0.520968   -1.208682
H       0.709615   -0.761304   -0.139551
H      -1.007291    0.158515    2.287621
H      -4.162112   -1.264890    1.289381
H      -4.183929   -1.810818   -2.245746
