19

O       0.089973    1.257096    0.215058
C      -0.107214   -0.137537    0.162491
C      -1.584362   -0.529509   -0.105496
C      -1.735980   -2.084491   -0.072314
C      -2.476415   -2.349871    1.259222
O      -2.339722   -1.162727    2.027824
C      -2.456099   -0.096093    1.108109
C      -2.019420    0.084481   -1.353381
C      -2.339992    0.635706   -2.374383
H      -0.201238    1.617813   -0.631569
H       0.530932   -0.612674   -0.598127
H       0.175693   -0.530688    1.143900
H      -2.295010   -2.454347   -0.932981
H      -0.749784   -2.557960   -0.088830
H      -3.540602   -2.561715    1.071157
H      -2.057940   -3.175912    1.838948
H      -2.082459    0.817608    1.573154
H      -3.501260    0.051230    0.795832
H      -2.646588    1.100873   -3.278784
