18

C       0.232300    0.967435    0.543699
O      -0.222175    0.215366   -0.584455
C      -1.318963   -0.552997   -0.347518
C      -1.401359   -1.892303   -0.058260
N      -0.352478   -2.809127    0.186091
C      -2.793219   -2.206755    0.055445
N      -3.255820   -3.515490    0.310247
C      -3.504563   -1.052467   -0.172152
N      -2.594667   -0.024178   -0.375653
H       1.124021    1.510124    0.221505
H      -0.528970    1.683728    0.876338
H       0.484488    0.306370    1.381594
H       0.539481   -2.401686   -0.073299
H      -0.479883   -3.650552   -0.369191
H      -2.747246   -3.934843    1.082667
H      -4.243795   -3.533618    0.531902
H      -4.566496   -0.869985   -0.183968
H      -2.809445    0.841239   -0.840421
