15

C       0.347439    1.455560    0.052251
C      -0.101775    0.002120   -0.038071
C       0.456387   -0.764159   -1.258758
C       1.713234   -1.431064   -0.695020
C       1.429587   -1.535307    0.800881
O       1.998580   -2.193076    1.622098
O       0.381599   -0.725315    1.113847
H       1.436425    1.539167   -0.027788
H      -0.102056    2.040310   -0.756642
H       0.041055    1.891035    1.006768
H      -1.193057   -0.051326    0.007198
H      -0.261643   -1.520797   -1.587063
H       0.650729   -0.098552   -2.102286
H       1.933146   -2.417632   -1.104570
H       2.611334   -0.817444   -0.824939
