18

N      -0.092902   -1.122777   -0.009241
C      -0.018778    0.026205   -0.108505
C       0.096745    1.478267   -0.219988
C       1.463400    2.003765    0.271400
C       1.531110    3.511918    0.179274
C       2.812848    4.328339    0.138159
C       3.841578    3.657017   -0.765514
O       2.868516    3.516006   -1.837568
C       1.906706    4.248253   -1.072881
H      -0.055050    1.763590   -1.266864
H      -0.718182    1.934576    0.354430
H       1.628154    1.677587    1.303789
H       2.247539    1.553383   -0.341336
H       0.757996    4.033617    0.742979
H       3.009455    5.143925    0.820572
H       4.646494    4.333201   -1.072848
H       4.266568    2.696551   -0.452662
H       1.300135    4.980947   -1.593311
