21

C       0.014632    1.528510   -0.027738
C      -0.027986    0.005186    0.026062
O       0.537397   -0.434022   -1.199824
C       0.698995   -1.827724   -1.380005
C       1.934441   -2.401783   -0.668152
C       1.996494   -2.070633    0.820550
C       0.633874   -2.046397    1.541855
C       0.714207   -0.530004    1.271599
O       2.134706   -0.635631    1.023260
H       1.054097    1.869231   -0.010557
H      -0.451612    1.885810   -0.949077
H      -0.514144    1.963487    0.825447
H      -1.077186   -0.337466    0.094789
H      -0.212544   -2.365246   -1.072535
H       0.805568   -1.976946   -2.459609
H       1.944531   -3.491788   -0.805019
H       2.840740   -2.003669   -1.138367
H       2.811166   -2.613455    1.310995
H      -0.195707   -2.612683    1.114986
H       0.721160   -2.275845    2.605116
H       0.496580    0.120049    2.126809
