17

N      -0.223731    1.476296   -0.073799
C      -0.045839    0.073748   -0.047556
C      -1.089419   -0.970502   -0.337486
C      -0.878023   -1.779180   -1.638795
C       0.417907   -1.267326   -2.361452
N       1.473792   -1.501475   -1.359714
C       1.157141   -0.877293   -0.314478
O       1.080970   -1.493526    0.941810
C      -0.267459   -0.936454    1.009701
H       0.540231    1.962021    0.384703
H      -0.295914    1.830832   -1.021645
H      -2.111541   -0.643681   -0.150432
H      -0.762727   -2.849520   -1.444896
H      -1.756498   -1.655950   -2.283553
H       0.636559   -1.844439   -3.261908
H       0.287308   -0.215770   -2.654411
H      -0.727696   -0.897712    1.988369
