16

C       0.026572    1.490625    0.024612
C       0.010661   -0.008826   -0.007396
C       0.567867   -0.983930   -1.121842
C       0.008647   -1.971887   -0.038838
C       0.654040   -0.999844    1.020991
O       2.052592   -0.906312    1.088995
C      -1.167595   -0.994738    0.014197
O      -2.361239   -0.988394    0.021717
H       1.052505    1.870724    0.053736
H      -0.467026    1.904752   -0.860105
H      -0.500877    1.865714    0.907756
H       0.067253   -0.969174   -2.090973
H       1.652104   -0.981073   -1.208580
H       0.014674   -3.059299   -0.050308
H       0.205321   -1.016212    2.021813
H       2.382874   -1.668727    1.574326
