18

O      -0.041877    1.415710   -0.046881
C       0.009141    0.006987   -0.024122
C      -1.279481   -0.593105   -0.489532
C      -1.734135   -1.507590    0.367124
C      -0.851751   -1.707724    1.583235
C       0.294614   -0.702799    1.355872
C       1.635698   -1.198565    0.776953
N       1.314728   -2.036403   -0.398730
C       1.362303   -0.563533   -0.545363
H       0.821996    1.748927    0.221971
H      -1.750888   -0.306426   -1.422261
H      -2.641576   -2.086211    0.224186
H      -1.399914   -1.526146    2.515921
H      -0.480134   -2.738293    1.627187
H       0.427741    0.017989    2.165151
H       2.572536   -1.327124    1.306342
H       2.195786   -2.400027   -0.761324
H       2.027418   -0.094511   -1.262925
