13

N       0.357371    1.243123    0.003821
C       0.072103    0.012000    0.001616
N      -1.232898   -0.492576    0.011052
C      -2.433151    0.208594    0.026305
O      -2.545908    1.402107    0.034397
C      -3.641320   -0.759590    0.031681
C      -4.920002   -0.062639    0.048769
N      -5.953405    0.450890    0.062283
H       1.369052    1.363315   -0.004666
H       0.793493   -0.815000   -0.008157
H      -1.297393   -1.498488    0.006356
H      -3.596231   -1.406229   -0.853318
H      -3.579153   -1.417997    0.906914
