18

O      -0.085949    1.364054    0.113328
C       0.024462   -0.026722    0.070771
C       0.938321   -0.745304    1.056466
C       0.608499   -2.144778    0.599659
C      -0.805795   -2.183505    0.131138
C      -1.360632   -0.764126    0.008708
C      -1.327161   -0.538829   -1.533906
C       0.190057   -0.738839   -1.318742
N       0.308216   -2.161366   -0.867901
H       0.766292    1.742270   -0.128773
H       1.994753   -0.484967    0.918846
H       0.659665   -0.559057    2.098509
H       1.119234   -3.020480    0.983556
H      -1.437068   -3.064132    0.170540
H      -2.197529   -0.464360    0.638000
H      -1.846231   -1.255282   -2.174240
H      -1.574708    0.488323   -1.805635
H       0.946345   -0.456841   -2.052643
