16

C      -0.250964    1.348200    0.236796
O      -0.306907   -0.051548    0.037350
C       0.519570   -0.502402   -0.994323
C       1.975026   -0.613996   -0.521309
O       2.926427   -0.758501   -1.242868
C       0.044901   -1.909874   -1.450164
C       0.597867   -2.367217   -2.780732
O      -0.706494   -2.553895   -0.768738
H       0.757099    1.692659    0.512496
H      -0.567565    1.895143   -0.663983
H      -0.937203    1.579128    1.053818
H       0.499160    0.160401   -1.875032
H       2.060127   -0.580021    0.587337
H       1.659609   -2.119302   -2.867687
H       0.434666   -3.438823   -2.900977
H       0.074790   -1.834631   -3.584538
