16

C       0.115543    1.440322    0.118504
N       0.231170   -0.000446    0.100794
C       0.521699   -0.643939   -0.954864
C       0.655740   -2.067202   -1.059332
C       0.969819   -2.662159   -2.234567
C       1.125113   -4.142120   -2.413021
O       1.174947   -1.987149   -3.363302
N       1.033312   -0.407940   -3.278780
N       0.754970    0.060252   -2.217190
H       0.818964    1.840707    0.858317
H       0.297408    1.929151   -0.845196
H      -0.888266    1.708479    0.469065
H       0.498625   -2.659644   -0.169206
H       0.417830   -4.507750   -3.164482
H       2.132274   -4.374987   -2.773613
H       0.950677   -4.664736   -1.470407
