19

C      -0.203545    1.424336    0.108702
N       0.040947   -0.010183   -0.024679
C       0.751075   -0.446080   -1.241766
C       2.217997    0.039300   -1.320529
C       0.699384   -2.006462   -1.189445
C       1.350024   -2.664834   -2.317330
N       1.874237   -3.188866   -3.203708
C       0.016854    0.009944   -2.428583
C      -0.557217    0.363715   -3.422476
H       0.701016    2.053075    0.105422
H      -0.850237    1.758078   -0.706360
H      -0.731215    1.596756    1.050850
H       0.574075   -0.334181    0.777236
H       2.772170   -0.307243   -0.440803
H       2.712846   -0.345206   -2.215633
H       2.260633    1.129896   -1.351885
H       1.185498   -2.342033   -0.265400
H      -0.348146   -2.313626   -1.137392
H      -1.066025    0.674250   -4.301950
