16

C      -0.071844    1.569344   -0.005804
C       0.043803    0.054199    0.062221
O       1.089217   -0.486782   -0.801595
C       1.650367   -1.238754    0.285311
C       2.183028   -0.297976    1.329956
C       0.705989   -0.636382    1.284131
O       0.013553   -1.230903    2.307332
C      -1.242288   -0.580874   -0.271109
N      -2.262567   -1.054168   -0.534297
H       0.872896    2.034721    0.281502
H      -0.320813    1.881594   -1.023499
H      -0.863756    1.918727    0.663333
H       1.986264   -2.248688    0.090670
H       2.690417   -0.785214    2.157594
H       2.577198    0.671746    1.042287
H      -0.022271   -0.625058    3.056338
