18

O      -0.034188    0.016289    0.227641
C      -0.007743    1.204045    0.111687
C      -1.060995    2.307263   -0.117491
C      -1.619018    2.943682    1.169843
C      -0.659852    3.941022    1.856735
C       0.767793    3.490383    2.082709
C       1.542394    2.809262    1.235030
C       1.087930    2.279347   -0.099395
N       0.028144    3.148939   -0.727919
H      -1.871099    2.026182   -0.797898
H      -2.546202    3.477736    0.932837
H      -1.892107    2.139301    1.862810
H      -0.637194    4.859119    1.258608
H      -1.098343    4.217018    2.821539
H       1.209957    3.796743    3.027970
H       2.553893    2.546182    1.530932
H       1.928282    2.017197   -0.747280
H       0.041844    2.998670   -1.733265
