16

O      -0.594262    0.558616    0.593331
C       0.165353    0.927017   -0.263047
C       1.271663    1.950279   -0.043642
C       1.263037    3.025867   -1.088198
N       1.765588    2.849207   -2.473381
C       2.324497    3.918189   -1.609582
C       1.311329    5.119365   -1.617887
O       0.193754    4.781002   -2.436290
C       0.252521    4.244992   -1.118355
H       0.106038    0.530316   -1.301291
H       1.161525    2.362039    0.965118
H       2.230977    1.413189   -0.083406
H       2.438030    2.080760   -2.446562
H       3.376246    3.967509   -1.359690
H       1.529026    6.165841   -1.445804
H      -0.581191    4.417800   -0.448111
