20

O      -0.440180    0.240460    0.290813
C       0.006882    1.357128    0.226902
C       1.406585    1.706813   -0.236902
C       1.387221    2.754359   -1.332254
C       0.861481    2.375405   -2.714293
C       1.326489    3.516510   -3.648861
C       2.609593    4.082056   -2.991662
C       2.437369    3.797686   -1.509240
N       1.151386    4.138968   -0.879263
H      -0.604271    2.241772    0.515684
H       1.941281    2.119714    0.628014
H       1.910806    0.790957   -0.560335
H       1.312424    1.420251   -3.010175
H      -0.224763    2.230913   -2.734754
H       1.499746    3.171395   -4.670662
H       0.557732    4.293008   -3.716076
H       3.499942    3.552624   -3.352071
H       2.758969    5.145058   -3.210180
H       3.299781    3.868288   -0.851928
H       0.547050    4.648321   -1.519474
