12

O      -0.061530   -0.053313   -0.001955
C      -0.043993    1.143611    0.007894
N       1.144006    1.896196    0.000852
C       2.437265    1.394721   -0.017912
N       3.325721    2.342254   -0.019893
C       2.597079    3.530153   -0.001745
C       1.253432    3.273858    0.011146
C       3.220962    4.806354    0.001982
N       3.706376    5.856660    0.005362
H      -0.939512    1.787639    0.023336
H       2.620599    0.332232   -0.028893
H       0.393901    3.922472    0.026224
