18

O       0.057301    1.478996    0.067599
C       0.036586    0.076731    0.015700
C      -1.331773   -0.585851   -0.325842
C      -1.466839   -0.102036   -1.774996
C      -0.237757   -0.093015   -2.309649
C       0.720043   -0.577935   -1.220902
N       0.413573   -2.051890   -1.128137
C       0.269094   -2.614862    0.231748
C      -0.918763   -2.066522   -0.480339
H      -0.297806    1.795754   -0.773006
H       0.449443   -0.235308    0.972920
H      -2.165967   -0.381108    0.344127
H      -2.404445    0.105323   -2.275113
H       0.038664    0.116395   -3.334292
H       1.782979   -0.392610   -1.370068
H       0.396047   -3.694277    0.255443
H       0.691034   -2.114135    1.094904
H      -1.654630   -2.748367   -0.900440
