19

C       0.059841    0.553921   -0.570989
O      -0.471595   -0.209448    0.495869
C       0.476579   -0.537503    1.472345
C      -0.120383   -1.436492    2.583061
C       0.883241   -2.570593    2.225915
O       0.352299   -3.693499    1.546810
C       0.183008   -3.303196    0.200766
O       1.220498   -2.384609   -0.097865
C       1.492466   -1.685219    1.096693
H       0.823227   -0.004547   -1.125972
H      -0.770760    0.787595   -1.241188
H       0.497878    1.496558   -0.207299
H       0.984471    0.366327    1.843468
H      -0.023273   -1.042944    3.596957
H      -1.163718   -1.701581    2.400106
H       1.525243   -2.931922    3.029947
H       0.290695   -4.182613   -0.440154
H      -0.796698   -2.826038    0.048453
H       2.553755   -1.431401    1.122142
