20

C      -0.009831    1.321622    0.111860
O       0.133133   -0.101229    0.031607
C       0.467759   -0.575495   -1.190470
O       0.629497    0.145070   -2.148867
C       0.605322   -2.068240   -1.177181
N       0.144455   -2.815444   -0.032920
C       0.460762   -2.754954   -2.526221
C       1.816045   -2.679429   -1.897976
C       2.942211   -1.871309   -2.499710
H       0.929642    1.819425   -0.141541
H      -0.784921    1.671194   -0.574704
H      -0.288652    1.534522    1.144120
H       0.612278   -2.484205    0.805938
H      -0.845810   -2.642450    0.118216
H      -0.068253   -3.700451   -2.517126
H       0.263219   -2.101971   -3.368598
H       2.125040   -3.589618   -1.391690
H       2.575029   -0.950855   -2.955825
H       3.688788   -1.605578   -1.742845
H       3.450135   -2.459719   -3.271751
