15

C      -0.023612    1.497910    0.042187
C      -0.002635    0.042626    0.004078
C       0.023564   -1.159764   -0.031950
C       0.026488   -2.627082   -0.064298
C      -1.413238   -3.196547    0.003978
C       0.737763   -3.139540   -1.241751
C       1.302926   -3.584756   -2.203612
H       0.991629    1.909622    0.040545
H      -0.550034    1.910660   -0.825388
H      -0.528890    1.865480    0.942145
H       0.563720   -2.984795    0.826527
H      -1.384536   -4.289042    0.016338
H      -1.910896   -2.839950    0.909179
H      -1.989881   -2.870601   -0.864422
H       1.812140   -3.968275   -3.052712
