19

C      -0.415673    1.564458    0.108114
C      -0.041765    0.082717   -0.037545
O      -1.220343   -0.706447    0.042520
C       0.730481   -0.269126   -1.329767
C       2.185026   -0.526158   -0.926134
C       2.902231    0.554905   -0.195290
C       2.277116   -0.590870    0.598791
C       0.900553   -0.388036    1.106344
O       0.473269   -0.666725    2.203677
H       0.438263    2.235728   -0.023540
H      -1.169659    1.814087   -0.644042
H      -0.842667    1.743993    1.099659
H      -1.375826   -0.842759    0.989041
H       0.289860   -1.182856   -1.735925
H       0.649800    0.510652   -2.093693
H       2.767275   -1.217589   -1.524028
H       3.986304    0.548780   -0.217514
H       2.469287    1.545853   -0.126071
H       2.928678   -1.265708    1.138882
