22

C      -0.078898    1.599221    0.178952
C       0.004455    0.083172    0.076352
C       0.967425   -0.551394   -0.996773
C       1.687133   -1.301780    0.138256
C       2.315927   -2.660454    0.073893
C       3.631098   -2.670415   -0.703687
O       4.111957   -4.005733   -0.714462
N       2.213949   -0.230728    1.028843
C       0.799266   -0.672447    1.153852
H       0.916758    2.022856    0.334678
H      -0.500711    2.033283   -0.734249
H      -0.716119    1.904490    1.016776
H      -0.994706   -0.352375   -0.024470
H       0.445406   -1.213234   -1.692402
H       1.591412    0.150308   -1.556713
H       2.504771   -3.036764    1.087368
H       1.628911   -3.370515   -0.402693
H       3.459171   -2.297812   -1.726119
H       4.349390   -1.986625   -0.225099
H       4.937956   -4.024308   -1.206227
H       2.729251   -0.694942    1.777728
H       0.433329   -1.065372    2.096298
