17

C       0.089962    1.417518   -0.112918
N       0.078156   -0.026531   -0.048872
C       0.625634   -0.660748    0.909556
C       1.304795    0.005338    2.013999
N       1.823504    0.611037    2.851865
N       0.601032   -2.047486    0.948983
C      -0.074788   -2.736363   -0.148226
C       1.186813   -2.774613    1.976366
N       1.159311   -4.045186    2.003401
H       0.566100    1.725184   -1.050830
H      -0.944412    1.777330   -0.153534
H       0.602279    1.915279    0.720589
H       0.398385   -2.477681   -1.098559
H       0.001675   -3.804120    0.043152
H      -1.120924   -2.424554   -0.196047
H       1.656350   -2.138416    2.729606
H       1.639677   -4.388945    2.831487
