18

C       0.041114    1.557878    0.092521
C      -0.028026    0.032110    0.007041
C       0.863927   -0.578040   -1.144866
N       2.030705   -1.234547   -0.514988
C       1.787184   -1.230362    0.733740
C       2.467732   -1.667026    2.011456
N       1.610608   -1.140684    3.099419
C       0.614460   -0.568046    2.529044
N       0.599562   -0.631535    1.148616
H       1.079973    1.893730    0.171258
H      -0.396581    2.002846   -0.806750
H      -0.510926    1.937656    0.958272
H      -1.070867   -0.285431   -0.093391
H       0.303940   -1.316096   -1.730894
H       1.197083    0.200508   -1.839646
H       2.538761   -2.758437    2.083235
H       3.485601   -1.273656    2.096461
H      -0.192100   -0.083469    3.068948
