16

C      -0.176791    1.586304    0.034096
C       0.027010    0.076205    0.019336
C       0.779149   -0.528788   -1.244855
N       1.791903   -0.975018   -0.281968
N       2.933777   -1.644769   -0.088532
C       3.060877   -1.560550    1.248352
C       2.004329   -0.852818    1.887618
C       1.200171   -0.495458    0.820096
H       0.759269    2.112261   -0.177847
H      -0.919133    1.887690   -0.712249
H      -0.533613    1.917431    1.014194
H      -0.918702   -0.440095    0.211342
H       0.265375   -1.343306   -1.762216
H       1.144688    0.206413   -1.967381
H       3.919986   -2.015060    1.721055
H       1.885731   -0.659945    2.940417
