18

N       0.468664    0.207105    1.132097
C      -0.117079   -0.408688   -0.042376
C      -1.633893   -0.162812   -0.089001
O      -1.793580    1.253441   -0.057143
C      -2.250799   -0.774103   -1.373653
C      -1.183452   -1.337322   -2.311931
O      -0.091436   -0.424451   -2.491614
C       0.512576    0.042703   -1.370013
O       1.481292    0.745364   -1.451885
H       1.473987    0.268915    0.992999
H       0.141175    1.169317    1.162944
H       0.025796   -1.498026    0.018530
H      -2.075039   -0.607693    0.811721
H      -2.713406    1.454848    0.137655
H      -2.964345   -1.569793   -1.135580
H      -2.799060    0.021152   -1.887268
H      -0.796935   -2.294731   -1.939793
H      -1.583329   -1.509930   -3.313085
