15

O      -0.118464    1.271409    1.322956
C       0.031114    1.534473    0.161522
C       1.392760    1.542952   -0.539014
C       1.522942    2.645594   -1.479323
C       1.574069    3.578688   -2.241651
C       1.681905    4.678132   -3.158084
C       0.932198    5.944378   -2.892677
N       2.389516    5.918646   -2.752495
H      -0.823790    1.784615   -0.503569
H       2.173277    1.552010    0.228990
H       1.480589    0.583724   -1.072339
H       1.866328    4.404702   -4.193834
H       0.561220    6.521765   -3.734621
H       0.315162    5.979956   -1.999857
H       2.638148    5.846227   -1.768608
