19

C      -0.381060   -0.672911   -1.311902
N       0.062119   -0.096834   -0.050970
C       0.488589   -0.731312    1.085712
N       0.875891   -0.168291    2.169710
C       0.860799    1.278881    2.218364
C       0.439870   -2.245816    1.071211
O      -0.323515   -2.892352    0.391148
O       1.326486   -2.780997    1.913410
C       1.288582   -4.209988    2.005749
H      -1.380736   -1.112507   -1.246666
H      -0.390228    0.126592   -2.057619
H       0.302282   -1.451516   -1.656107
H      -0.018998    0.901810    0.027354
H       1.502799    1.732265    1.444142
H      -0.152227    1.696872    2.086429
H       1.227535    1.614985    3.191151
H       0.313707   -4.547088    2.367456
H       1.477154   -4.666250    1.030394
H       2.072293   -4.478743    2.713468
