22

C       0.807130   -0.196000   -1.316175
C      -0.015118   -0.066436   -0.033084
C       0.692951   -0.621676    1.225311
C      -0.130256   -0.327374    2.501599
C       0.574757   -0.722646    3.800031
C       0.976818   -2.052056    1.090946
C       1.183894   -3.234120    0.978609
C       1.446691   -4.660819    0.843696
H       1.040722   -1.243497   -1.527451
H       0.262865    0.211193   -2.173903
H       1.755368    0.347522   -1.234870
H      -0.249154    0.989467    0.151258
H      -0.974681   -0.584375   -0.151329
H       1.653638   -0.092084    1.323464
H      -0.356576    0.746063    2.515530
H      -1.091723   -0.849674    2.425514
H       0.798183   -1.793318    3.813994
H       1.521374   -0.182671    3.916329
H      -0.048000   -0.493387    4.670285
H       1.981452   -5.052430    1.716267
H       0.516506   -5.231400    0.743922
H       2.059162   -4.872024   -0.040040
