16

O       0.267058    1.513374   -1.405629
C       0.118909    1.522908   -0.203759
N       1.114572    1.292566    0.701779
C       2.434298    0.965530    0.308781
C       3.647771    1.479771    1.030280
C       3.462197    1.818489   -0.427662
C       3.777267    0.591374   -1.338246
O       4.197183   -0.519417   -0.522990
C       2.798515   -0.231012   -0.647290
H      -0.851024    1.725853    0.292223
H       0.866451    1.236303    1.678322
H       3.446432    2.306575    1.704535
H       4.425376    0.794971    1.343684
H       3.347926    2.829248   -0.792395
H       4.099189    0.610851   -2.371031
H       2.132526   -1.014811   -0.985586
