22

C      -0.151260    1.608957    0.047981
C      -0.026724    0.076680   -0.008088
C      -1.415493   -0.559906    0.080305
C       0.687771   -0.408724   -1.296022
C       2.199890   -0.343950   -1.230606
N       2.827453    0.946148   -0.895154
C       2.870011   -0.162610    0.082466
C       2.001007   -0.001309    1.320406
O       0.665787   -0.441006    1.137921
H       0.810387    2.100967   -0.102826
H      -0.829432    1.953793   -0.739573
H      -0.569205    1.911517    1.013371
H      -2.008371   -0.318503   -0.807342
H      -1.327755   -1.647162    0.159255
H      -1.947071   -0.193646    0.963281
H       0.416229   -1.458475   -1.460446
H       0.320462    0.156488   -2.161105
H       2.709910   -0.961519   -1.967598
H       3.723493    1.030119   -1.367593
H       3.828389   -0.651623    0.237844
H       2.393536   -0.624330    2.130303
H       2.033652    1.045191    1.656909
