19

C       0.035594    1.551161    0.129569
C      -0.044728    0.066276   -0.092907
C       0.388063   -0.566711   -1.437128
C      -0.759002   -1.618565   -1.293948
O      -0.351537   -2.903001   -0.848860
C      -0.357112   -2.967001    0.577975
C      -0.649552   -1.562010    1.086084
O       0.506300   -0.690270    1.023561
C      -1.323995   -0.826809   -0.081806
H       1.083993    1.866481    0.180005
H      -0.444295    2.096362   -0.689393
H      -0.447519    1.832017    1.070219
H       0.212767    0.105734   -2.283113
H       1.404989   -0.961719   -1.480625
H      -1.394613   -1.745089   -2.172798
H      -1.132720   -3.671631    0.912367
H       0.616367   -3.321078    0.936173
H      -1.114278   -1.541704    2.076740
H      -2.357797   -0.492909   -0.039911
