17

C      -0.192714    1.439918   -0.010444
C       0.069096   -0.044998   -0.008857
O       1.145854   -0.578493   -0.031525
O      -1.100218   -0.737108    0.024519
C      -0.977969   -2.164847    0.034317
C      -2.419233   -2.703213   -0.027383
N      -3.189041   -2.304905   -1.205165
C      -2.385814   -4.169160    0.076224
N      -2.324103   -5.319764    0.152809
H       0.755868    1.973624   -0.045991
H      -0.808032    1.713672   -0.872156
H      -0.747149    1.723381    0.888687
H      -0.394141   -2.498738   -0.828997
H      -0.462163   -2.491739    0.942550
H      -2.950998   -2.324219    0.854833
H      -3.157827   -1.291894   -1.272304
H      -2.751515   -2.672296   -2.046016
