17

C      -0.079659    1.496001   -0.000864
C       0.015021   -0.000540   -0.017324
C       0.860033   -0.769100   -1.051090
C       0.397020   -2.157126   -0.851913
C      -0.919359   -2.128571   -0.108334
C      -0.691079   -1.572597    1.242995
C       0.669200   -0.891180    1.065043
N       1.491856   -1.635786    0.015795
N      -1.329306   -0.725038    0.163550
H       0.915647    1.951235   -0.020650
H      -0.640540    1.851937   -0.872179
H      -0.601345    1.840894    0.896745
H       1.415331   -0.382525   -1.899544
H       0.664364   -2.968457   -1.517739
H      -1.718137   -2.826294   -0.328024
H      -1.209163   -1.850632    2.154124
H       1.248646   -0.526569    1.909698
