15

C      -0.011545    1.506420   -0.023596
C      -0.001837    0.003547    0.002131
N      -0.059954   -0.644724   -1.162483
C      -0.040133   -1.977442   -1.131161
N       0.028586   -2.742018   -0.042819
C       0.081126   -2.095529    1.119808
C       0.072701   -0.702339    1.219448
N       0.196275   -0.049576    2.442672
H       0.863645    1.916358    0.494664
H      -0.011732    1.852657   -1.057389
H      -0.901664    1.913094    0.475928
H      -0.085330   -2.488391   -2.089031
H       0.135548   -2.705617    2.021645
H      -0.024094   -0.618025    3.248362
H      -0.245253    0.856480    2.497608
