21

C       0.078499    1.598957    0.020551
C       0.082853    0.067478   -0.020778
C       0.735765   -0.559290   -1.253850
C       2.227988   -0.437079   -1.411797
C       1.638241   -1.698684   -0.817748
C       1.588183   -1.821547    0.701617
C       2.747031   -1.184298    1.493258
O       2.017011    0.058411    1.621905
C       0.788818   -0.583628    1.182528
H       1.098576    1.987882    0.060070
H      -0.414427    2.010541   -0.865631
H      -0.454101    1.968611    0.903149
H      -0.958235   -0.284050    0.007936
H       0.132624   -0.643204   -2.152186
H       2.630945   -0.509553   -2.416466
H       2.762513    0.247834   -0.763750
H       1.703880   -2.610556   -1.400528
H       1.257495   -2.809958    1.024477
H       2.927988   -1.642592    2.474651
H       3.700924   -1.053491    0.971250
H       0.113303   -0.724372    2.036059
