17

C      -0.065356    1.571859    0.083799
C       0.025605    0.057859    0.006981
O      -1.240160   -0.551602   -0.156402
C       1.109099   -0.563400   -0.965837
C       1.715761   -1.288538    0.243426
N       2.110166   -0.220579    1.207109
C       0.713984   -0.673693    1.173970
C       2.314271   -2.580244    0.283727
N       2.804472   -3.629002    0.304114
H       0.910399    2.003156    0.317810
H      -0.400194    1.985446   -0.875492
H      -0.783676    1.869179    0.853872
H      -1.666492   -0.155484   -0.924152
H       0.634190   -1.244534   -1.672619
H       1.790461    0.120946   -1.474997
H       2.565464   -0.669311    2.002028
H       0.222070   -1.107934    2.035454
