16

O      -0.093608    1.413467   -0.017882
C      -0.086346    0.030839    0.041560
C      -0.456209   -0.757888    1.253509
C      -1.577042   -0.062382    2.017443
O      -1.152276    1.179284    2.565007
C      -2.475845   -0.041503    0.735311
C      -1.368315   -0.792648   -0.017830
C      -1.566159   -1.856473   -0.941504
N      -1.730682   -2.721465   -1.694173
H      -0.316584    1.744211    0.864828
H       0.719394   -0.401906   -0.545660
H       0.173077   -1.544147    1.651678
H      -2.005736   -0.701383    2.796483
H      -1.905317    1.610867    2.982721
H      -3.395702   -0.615200    0.850832
H      -2.699591    0.948671    0.330929
