16

C      -0.013769    1.494857    0.024260
C       0.000041   -0.006205   -0.011959
N      -0.123318   -0.611385   -1.192996
C      -0.106495   -1.949899   -1.184151
C       0.029511   -2.718394   -0.035979
C       0.049487   -4.218919   -0.015810
C       0.148501   -1.946633    1.123139
F       0.284319   -2.579958    2.284606
N       0.137899   -0.640586    1.167389
H       0.915153    1.871631    0.464050
H      -0.130466    1.895220   -0.982613
H      -0.831992    1.850857    0.658331
H      -0.207563   -2.439600   -2.151354
H       0.985431   -4.599336    0.406423
H      -0.762665   -4.620013    0.599435
H      -0.057382   -4.620565   -1.026689
