19

N      -0.059042    1.580209   -0.229336
C      -0.060440    0.141910    0.053091
C       0.392972   -0.155571    1.504576
C      -0.261506   -1.506919    1.808808
C      -1.683258   -1.344486    1.237751
O      -2.532387   -0.632868    2.135383
C      -1.507817   -0.444344   -0.006515
C       0.815417   -0.595861   -0.889413
N       1.509180   -1.135865   -1.641907
H       0.891193    1.940269   -0.186082
H      -0.379318    1.746799   -1.179981
H       1.479232   -0.147683    1.620690
H      -0.038071    0.625597    2.136815
H       0.263586   -2.313227    1.283045
H      -0.269047   -1.757470    2.873858
H      -2.133993   -2.311476    0.978334
H      -2.647461   -1.171944    2.924761
H      -2.219111    0.381700    0.055354
H      -1.684734   -0.987688   -0.936264
