17

C       0.015642    1.545463   -0.072312
C      -0.006815    0.053739   -0.006528
C      -1.051674   -0.781634    0.019484
C      -0.663981   -2.253726    0.057104
C       0.883899   -2.214175    0.166402
C       1.255824   -0.734088    0.024138
O       2.375824   -0.284425   -0.049280
C      -1.330907   -2.981107    1.133462
C      -1.883423   -3.568827    2.024481
H       0.594182    1.879505   -0.940114
H      -0.990463    1.966791   -0.133272
H       0.517808    1.960456    0.808422
H      -2.095934   -0.488269    0.008965
H      -0.957464   -2.718383   -0.895146
H       1.224523   -2.576300    1.140068
H       1.385992   -2.812663   -0.597230
H      -2.369032   -4.093454    2.809760
