19

C      -0.305254    1.111278    0.077760
O       0.108663   -0.244735   -0.085267
C       0.718481   -0.541787   -1.251389
N       0.949058   -1.902122   -1.322257
N       0.967743    0.347966   -2.126592
C       1.581819   -0.055401   -3.359805
C       1.735577    1.045214   -4.430402
O       3.140246    0.749977   -4.597772
C       3.136675   -0.108471   -3.444737
H       0.553357    1.786795    0.044449
H      -1.004903    1.401317   -0.710488
H      -0.788987    1.153179    1.054668
H       0.873242   -2.391703   -0.443943
H       1.723451   -2.194484   -1.895086
H       1.125485   -0.963586   -3.779322
H       1.177787    0.926412   -5.365930
H       1.568194    2.049917   -4.022309
H       3.624272    0.355735   -2.576185
H       3.607102   -1.078428   -3.652872
