20

C      -0.222159    1.492883    0.065425
C      -0.014378   -0.010901   -0.015931
C       0.753594   -0.590259   -1.209265
N       2.147329   -0.082019   -1.102345
C       1.732101   -1.280115   -0.328167
C       1.075576   -0.689660    0.929702
O       1.893530    0.186844    1.671617
C       0.508975   -1.686580    1.924399
O      -0.269168   -1.034674    2.910215
H       0.704439    2.033108   -0.144607
H      -0.974294    1.821198   -0.660184
H      -0.568314    1.778215    1.063027
H      -0.965123   -0.535743    0.116358
H       0.361994   -0.903950   -2.169378
H       2.663443   -0.404279   -1.919011
H       2.250326   -2.225096   -0.442964
H       2.372664    0.713109    1.016688
H      -0.146245   -2.401529    1.416636
H       1.343092   -2.248670    2.375327
H       0.285076   -0.322703    3.251575
