21

O      -0.035929    1.343338   -0.369151
C       0.035776   -0.066258   -0.191079
C      -1.373222   -0.557285    0.080994
C      -2.367235   -0.501400   -1.112986
C      -2.662342   -2.018813   -0.955482
C      -2.070413   -2.927162   -2.035513
O      -0.669082   -2.969123   -1.777051
C      -0.536410   -3.034744   -0.360413
C      -1.608068   -2.096793    0.206961
H       0.824463    1.651071   -0.668119
H       0.432646   -0.559950   -1.090697
H       0.696664   -0.326248    0.653278
H      -1.755580   -0.022580    0.955344
H      -3.227567    0.154701   -0.967021
H      -1.895029   -0.238433   -2.064219
H      -3.693865   -2.274778   -0.708654
H      -2.501230   -3.940209   -1.969655
H      -2.209564   -2.554950   -3.054707
H      -0.717936   -4.062917   -0.005474
H       0.492985   -2.765105   -0.110138
H      -1.960566   -2.426405    1.185837
