23

C       0.081741    1.211036   -0.716534
C      -0.058522    0.158550    0.392187
C      -1.414871   -0.528352    0.386484
C      -2.587467    0.335237    0.811284
O      -1.680582   -1.347427   -0.769783
C      -1.560120   -1.994417    0.507175
C      -0.449281   -3.000898    0.674500
C      -0.745847   -4.291615   -0.084885
O       0.327121   -5.188741    0.157108
H       1.089346    1.636941   -0.718452
H      -0.099324    0.756402   -1.694865
H      -0.624822    2.037240   -0.591783
H       0.733478   -0.584577    0.274102
H       0.092618    0.624446    1.374311
H      -2.680662    1.217042    0.169864
H      -3.522081   -0.227074    0.745947
H      -2.460037    0.682259    1.842588
H      -2.520970   -2.340698    0.900264
H       0.504533   -2.605676    0.317602
H      -0.329619   -3.237710    1.739127
H      -1.705040   -4.714672    0.257093
H      -0.850140   -4.063479   -1.156071
H       0.176442   -5.983655   -0.362359
