18

N      -0.012061    1.212513    0.209937
C      -0.005860   -0.038944    0.051607
C      -1.218707   -0.940837    0.037313
C      -0.704793   -2.212253   -0.664604
C       0.783434   -2.182379   -0.276357
O       1.120260   -0.793886   -0.138186
C      -1.454432   -3.466117   -0.278047
C      -0.818757   -4.773973   -0.073524
O      -1.235033   -3.976141    1.039004
H       0.941458    1.579137    0.196139
H      -1.504705   -1.171198    1.070465
H      -2.066404   -0.458133   -0.449035
H      -0.794730   -2.084494   -1.750496
H       0.946111   -2.690924    0.681045
H       1.445463   -2.610844   -1.032153
H      -2.504659   -3.465633   -0.575537
H      -1.393437   -5.684186   -0.236058
H       0.258205   -4.882369   -0.191429
