19

C      -0.186791    1.564588    0.211253
C       0.189676    0.123662   -0.127749
N       0.773025   -0.521436    1.044898
C      -0.097988   -1.266708    1.934756
C       0.920206   -1.989072    1.095561
C       0.449889   -2.886109   -0.041633
C       2.147039   -2.437421    1.716620
C       3.158726   -2.851713    2.217055
H       0.688032    2.116469    0.565167
H      -0.592081    2.073732   -0.668644
H      -0.946378    1.593930    0.999367
H      -0.697920   -0.403505   -0.514038
H       0.943329    0.112320   -0.923686
H       0.066440   -1.129713    2.999837
H      -1.140176   -1.402982    1.642725
H      -0.522252   -2.578530   -0.430949
H       1.173148   -2.882094   -0.863186
H       0.360262   -3.915512    0.316701
H       4.056157   -3.199206    2.665590
