21

C      -0.131938    1.475854    0.019761
N      -0.054705    0.027821   -0.028784
C      -0.002837   -0.712017    1.227798
C      -1.388557   -1.029111    1.804930
C      -1.310023   -1.803223    3.120950
O      -2.586392   -2.066609    3.681986
C      -0.123855   -0.699788   -1.192194
N      -0.108664    0.045442   -2.371252
O      -0.232519   -1.916638   -1.204221
H       0.857571    1.957308   -0.003876
H      -0.728314    1.856147   -0.812880
H      -0.627946    1.784118    0.944473
H       0.534702   -1.643645    1.038201
H       0.584948   -0.123722    1.943117
H      -1.957906   -0.106625    1.971803
H      -1.934520   -1.621439    1.060747
H      -0.737757   -2.733708    2.973870
H      -0.774385   -1.215482    3.875826
H      -3.071060   -2.614025    3.055806
H       0.471799    0.870077   -2.402117
H       0.007972   -0.556880   -3.172672
