25

C       0.109989    1.567612    0.066718
C       0.012144    0.039156    0.019963
C      -1.419728   -0.518520   -0.022694
C      -2.176249   -0.144193   -1.311310
C      -3.597136   -0.729237   -1.341709
C      -3.604719   -2.253303   -1.146157
O      -3.102639   -2.938855   -2.293130
C      -2.841347   -2.638132    0.131392
C      -1.423898   -2.047421    0.156556
H       1.152037    1.888998    0.160680
H      -0.295052    2.034100   -0.836534
H      -0.439654    1.972305    0.924204
H       0.569196   -0.337970   -0.849291
H       0.517615   -0.374908    0.902292
H      -1.974418   -0.084902    0.825243
H      -2.227743    0.943023   -1.427397
H      -1.604366   -0.508221   -2.179085
H      -4.193337   -0.270248   -0.541905
H      -4.090682   -0.488573   -2.289113
H      -4.640813   -2.599120   -1.063907
H      -2.186900   -2.675203   -2.425849
H      -3.403183   -2.268671    0.999619
H      -2.806445   -3.729625    0.211465
H      -0.817024   -2.503488   -0.640734
H      -0.925230   -2.316298    1.095025
