25

C      -0.309071    1.411531    0.043143
C       0.281733    0.004542   -0.073330
C       0.658719   -0.583670    1.279634
O       1.191252   -1.878307    1.080547
C       1.603744   -2.508425    2.262597
C       0.532141   -3.102639    3.222178
C       1.443487   -4.355614    3.372597
C       0.797685   -5.730850    3.438347
C       2.170862   -3.926196    2.065385
H       0.401305    2.106808    0.504248
H      -0.571477    1.810893   -0.940774
H      -1.218034    1.413991    0.655058
H      -0.434110   -0.669727   -0.557457
H       1.175471    0.017256   -0.707709
H       1.401062    0.059942    1.784235
H      -0.226588   -0.625899    1.936433
H       2.306172   -1.862846    2.814229
H       0.262844   -2.545933    4.123131
H      -0.376613   -3.342959    2.659916
H       2.113980   -4.221322    4.229002
H       0.123202   -5.887681    2.588965
H       1.550929   -6.526679    3.417192
H       0.211638   -5.852445    4.356393
H       1.707141   -4.385715    1.186613
H       3.254816   -4.046061    2.002311
