23

C       0.364057    1.621171   -0.253936
C       0.187411    0.106084   -0.117458
C       0.629777   -0.471510    1.240496
O       1.939687   -0.001522    1.523623
C      -0.307646   -0.034373    2.390458
O       0.304553   -0.252716    3.653276
C       0.652855   -2.006503    1.120107
O       0.881872   -2.593679    2.394026
C       0.963509   -4.000878    2.354593
H       1.392275    1.904389   -0.020929
H       0.136423    1.939052   -1.275807
H      -0.299233    2.177747    0.415315
H      -0.859003   -0.173643   -0.294142
H       0.774933   -0.389806   -0.900577
H       1.994347    0.027038    2.490126
H      -0.497644    1.040025    2.328953
H      -1.273134   -0.555742    2.309645
H       0.465559   -1.206852    3.697059
H      -0.301971   -2.374391    0.708886
H       1.458625   -2.292825    0.427931
H       0.029024   -4.450388    1.985653
H       1.787946   -4.334758    1.707655
H       1.147885   -4.349032    3.373496
