19

C       0.075125    1.533492   -0.041246
C      -0.012010    0.038418    0.078156
C       1.158238   -0.893059   -0.225353
C       0.533700   -0.987678    1.128279
C       1.262336   -0.708986    2.409591
O       1.943430   -1.853151    2.906736
C      -0.735528   -1.848469    1.007345
C      -1.279026   -0.766313    0.039152
O      -2.373528   -0.531402   -0.391964
H       1.047983    1.905177    0.294834
H      -0.057797    1.844854   -1.082810
H      -0.703780    2.022622    0.551621
H       1.054218   -1.703455   -0.942440
H       2.109724   -0.370303   -0.285023
H       1.950766    0.139938    2.269512
H       0.554741   -0.428427    3.197331
H       2.556042   -2.145174    2.223285
H      -0.609611   -2.865400    0.625160
H      -1.344126   -1.881264    1.916195
