21

C       0.038104    1.572863   -0.030431
C       0.062109    0.040336    0.047505
C       0.742777   -0.636904   -1.167696
C       1.491396   -1.876851   -0.614322
O       2.739297   -2.133973   -1.249357
C       1.591403   -1.577243    0.861000
C       0.835650   -0.539831    1.222724
C       0.661622   -0.006817    2.608801
O       1.400543   -0.793611    3.524723
H       1.055526    1.979122   -0.061391
H      -0.481571    1.904411   -0.935352
H      -0.478699    2.018895    0.825947
H      -0.981350   -0.303921    0.119415
H       0.043005   -0.881301   -1.970986
H       1.493209    0.042478   -1.590955
H       0.917388   -2.796693   -0.787781
H       3.331424   -1.411841   -1.010539
H       2.187615   -2.178551    1.535858
H       0.985022    1.048128    2.637915
H      -0.415491   -0.001150    2.858445
H       1.312213   -0.399104    4.396767
