19

O      -0.140879    1.346770    0.014817
N       0.028095   -0.059255   -0.008197
C      -1.091327   -0.643900   -0.063897
C      -2.562425   -0.305238    0.040990
C      -3.217251   -0.402055   -1.349135
C      -3.142091   -1.863189   -1.857813
C      -1.884344   -2.619359   -1.361914
C      -1.480527   -2.099058    0.030751
N      -2.751826   -1.646604    0.738471
H       0.769422    1.654744    0.077337
H      -2.856089    0.581554    0.604487
H      -4.263994   -0.085101   -1.295801
H      -2.704231    0.291867   -2.023856
H      -4.017507   -2.392213   -1.475993
H      -3.203489   -1.893975   -2.949593
H      -2.096403   -3.692596   -1.315240
H      -1.035040   -2.486920   -2.041207
H      -0.836227   -2.785601    0.583488
H      -2.513618   -1.507805    1.719328
