16

C      -0.185004    1.335248   -0.045826
O      -0.064572   -0.067320   -0.023374
C       0.697243   -0.586547   -1.098406
C       0.623589   -2.111053   -1.005918
C       1.324259   -2.656939    0.241650
O      -0.734154   -2.525224   -1.065709
H       0.796121    1.827810    0.036060
H      -0.670379    1.687253   -0.969243
H      -0.798343    1.626160    0.810523
H       0.271881   -0.253386   -2.058340
H       1.740537   -0.234596   -1.044155
H       1.102757   -2.524986   -1.901500
H       0.903866   -2.204890    1.144722
H       1.189894   -3.740046    0.297237
H       2.397859   -2.439510    0.218914
H      -1.204950   -1.960419   -0.440333
