15

N      -0.021667    1.163218    0.458025
C      -0.002856   -0.015626    0.012951
O       1.103208   -0.689702   -0.421697
C       0.792977   -2.018246   -0.878127
C       1.125497   -3.113155    0.154510
N      -0.266908   -3.021528    0.653442
C      -0.695522   -2.265195   -0.553833
C      -1.233134   -0.900797   -0.147444
O      -2.371389   -0.567436    0.024265
H       0.918017    1.566340    0.467486
H       1.168570   -2.128906   -1.894728
H       1.379309   -4.064592   -0.331329
H       1.893931   -2.863391    0.892060
H      -0.757115   -3.889685    0.826789
H      -1.310936   -2.790102   -1.288057
