19

C       0.134099    1.306263   -0.224693
O       0.020498    0.032139    0.372342
C      -1.240263   -0.544440    0.202838
C      -1.553622   -1.353034   -1.104211
C      -0.530852   -2.412102   -0.597552
C      -1.364388   -2.017143    0.658895
C      -2.634248   -2.114015   -0.259844
C      -3.872126   -1.460697    0.116682
C      -4.921087   -0.952972    0.416059
H       1.128288    1.689727    0.015923
H       0.026071    1.259584   -1.318377
H      -0.621242    2.004758    0.166694
H      -2.031372    0.138322    0.536642
H      -1.686896   -0.977630   -2.119272
H      -0.662425   -3.431813   -0.968730
H       0.513471   -2.107304   -0.590847
H      -1.273575   -2.401415    1.675007
H      -2.827045   -3.128484   -0.620055
H      -5.843243   -0.499629    0.683557
