21

C      -0.035292   -1.239095   -0.089419
C      -0.043348   -0.038620   -0.026092
C      -0.017639    1.416946    0.050234
C       1.409807    1.999445   -0.019018
C       1.440957    3.527796    0.048278
C       0.926082    4.139544    1.383636
C       1.805288    5.352142    1.576263
C       2.849563    5.349041    0.750166
C       2.859905    4.133254   -0.144393
H      -0.041023   -2.299226   -0.144251
H      -0.620466    1.836400   -0.766552
H      -0.503491    1.738978    0.980054
H       2.006067    1.581196    0.801484
H       1.881428    1.658854   -0.948209
H       0.806713    3.921235   -0.756980
H      -0.141138    4.386872    1.348665
H       1.049366    3.435861    2.221547
H       1.606234    6.102951    2.333262
H       3.634795    6.096936    0.729511
H       3.643620    3.427639    0.171042
H       3.069180    4.369603   -1.194148
