13

N      -0.144044    1.318662    0.018604
C       0.040182   -0.032653    0.011905
O       1.135854   -0.566403    0.003112
C      -1.200158   -0.831115    0.017067
C      -1.389283   -2.180671    0.014400
C      -2.801159   -2.390216    0.021886
C      -3.366346   -1.152041    0.028985
O      -2.410543   -0.190329    0.026580
H       0.669647    1.909351    0.011982
H      -1.061574    1.727833    0.021707
H      -0.603485   -2.918127    0.007512
H      -3.325401   -3.332709    0.022087
H      -4.385113   -0.800417    0.035940
