16

O      -0.001479    0.042786   -0.167835
C      -0.034170    1.228567    0.018889
C      -1.136441    2.233404    0.050133
C      -0.773123    3.389414    0.997922
C       0.181710    3.115530    2.161003
C       1.497910    2.664267    1.471869
C       1.064680    2.323045    0.035263
C      -0.081417    3.317751   -0.311966
H      -2.150855    2.102011   -0.306876
H      -1.583620    4.098538    1.129434
H       0.329474    4.020209    2.758345
H      -0.215676    2.346702    2.830900
H       2.228428    3.480087    1.456313
H       1.965323    1.810472    1.969983
H       1.872251    2.169527   -0.680087
H      -0.122979    4.020634   -1.131183
