10

O       0.118709    0.058347   -0.239910
C       0.092308    1.226955    0.055588
N       1.170338    1.945609    0.547520
C       2.513854    1.818756    0.037070
C       1.753364    3.107918   -0.097627
H      -0.827441    1.842621    0.027618
H       3.299996    1.736370    0.781619
H       2.646880    1.206419   -0.850526
H       1.389200    3.375259   -1.086784
H       1.986014    3.947535    0.551182
