20

C      -0.165626    1.453582    0.002065
N       0.014627    0.008038    0.020962
C       1.318618   -0.632844   -0.267270
C       2.566835    0.154325   -0.414774
C       3.061335    0.930859    0.552251
C       2.390586    1.094117    1.888419
C       1.420337   -0.049087    2.256087
O       0.423691    0.394380    3.177195
C       0.692869   -0.692572    1.092121
H       0.765762    2.029932   -0.068314
H      -0.781801    1.712846   -0.865514
H      -0.698841    1.756148    0.907472
H       1.232148   -1.492702   -0.927894
H       3.079715    0.084948   -1.370101
H       3.972383    1.498303    0.381183
H       3.146173    1.197025    2.678377
H       1.816368    2.029767    1.904334
H       2.009288   -0.861852    2.713257
H       0.869689    0.696923    3.975159
H       0.184531   -1.608801    1.391733
