25

C      -0.410637   -0.874168   -2.666930
C      -0.394901   -0.326607   -1.230939
C      -0.114211    1.184077   -1.226146
C      -1.677299   -0.680116   -0.417846
C      -2.964165   -0.188650   -1.098600
C      -1.732925   -2.171631   -0.053467
C      -0.593457   -2.701549    0.798513
C      -3.011657   -2.903865    0.009981
O      -2.132426   -3.070854   -1.104832
H       0.549033   -0.679716   -3.157657
H      -0.597666   -1.949872   -2.689360
H      -1.187625   -0.389670   -3.268122
H       0.449265   -0.794656   -0.710774
H      -0.873176    1.745362   -1.781462
H      -0.080893    1.584261   -0.206749
H       0.851014    1.394558   -1.698633
H      -1.583515   -0.151487    0.542128
H      -3.235890   -0.834541   -1.937915
H      -3.802579   -0.169909   -0.396790
H      -2.843647    0.828161   -1.479971
H      -0.492631   -2.116178    1.718939
H      -0.774681   -3.744172    1.070470
H       0.361354   -2.659650    0.267287
H      -3.092047   -3.766582    0.671131
H      -3.954593   -2.411690   -0.212069
