18

C       0.221590    1.378326   -0.042608
N       0.101835   -0.063588    0.007842
C       0.186572   -0.932067   -1.068987
C       0.103166   -2.219148   -0.596855
C       0.127332   -3.462539   -1.436187
O       0.812406   -3.282764   -2.669148
C      -0.025386   -2.143886    0.827359
C      -0.021552   -0.806753    1.147007
O      -0.097845   -0.135719    2.327261
H       1.257717    1.707931    0.098937
H      -0.130152    1.732300   -1.013954
H      -0.392969    1.825681    0.740653
H       0.278829   -0.555141   -2.073881
H       0.558501   -4.293990   -0.853966
H      -0.886648   -3.774234   -1.717370
H       1.661960   -2.882204   -2.454313
H      -0.113331   -2.968092    1.519294
H      -0.253956   -0.776938    3.026610
