19

C      -0.182177    1.490646    0.051428
N       0.045866    0.040833    0.037262
C       0.696715   -0.454428   -1.122618
C       0.119436   -1.244415   -2.074973
C      -1.246007   -1.814666   -2.188005
O       1.010019   -1.516101   -3.058777
C       2.192939   -0.895790   -2.731479
C       2.060310   -0.225524   -1.556351
N       2.983212    0.594789   -0.890370
H       0.729343    2.092810   -0.079558
H      -0.872156    1.749930   -0.757187
H      -0.653393    1.767854    0.999586
H       0.526469   -0.246329    0.883320
H      -1.770751   -1.440483   -3.074786
H      -1.221195   -2.908014   -2.260366
H      -1.814519   -1.533442   -1.299152
H       3.002043   -1.024249   -3.430339
H       3.944048    0.392263   -1.134459
H       2.880115    0.547509    0.115721
