15

O       0.015374   -0.048959    0.033962
C       0.042119    1.156120    0.019800
N      -1.110795    1.941656    0.016334
C      -1.074437    3.335649   -0.025538
O      -2.067997    4.017825   -0.050149
C       0.361039    3.850054   -0.061577
C       1.156475    3.078959   -1.150522
C       1.298920    2.019297   -0.023600
N       1.101643    3.095861    1.018917
H      -2.011278    1.481184    0.056698
H       0.369853    4.937716   -0.014950
H       0.664040    2.807237   -2.088311
H       2.112997    3.564697   -1.357452
H       2.185720    1.393123    0.058570
H       2.000416    3.558995    1.149689
