15

C      -0.027352    1.444116    0.033157
N      -0.028191   -0.003975    0.054339
C       0.524751   -0.630743   -0.912909
N       1.150783   -0.005459   -2.025619
C       1.729375   -0.696380   -3.037396
N       1.782066   -1.985934   -3.113275
C       1.195802   -2.643135   -2.070121
F       1.263710   -3.962265   -2.172138
C       0.588526   -2.072051   -1.006143
H       0.988831    1.876402    0.040038
H      -0.557781    1.864669   -0.839416
H      -0.536901    1.818920    0.924196
H       1.161934    1.002089   -2.058387
H       2.172615   -0.095056   -3.827372
H       0.143990   -2.657213   -0.213928
