17

O      -0.038202   -0.024015    0.042315
C       0.023347    1.187494    0.073876
N       1.177022    1.900938    0.113195
C       2.503496    1.292799   -0.030710
C       3.329860    2.425067   -0.633574
C       2.462347    3.547645   -1.031338
C       1.315094    3.340925   -0.005684
C       2.332056    3.854930    1.046577
N       3.470952    3.738298    0.072198
H      -0.869088    1.845319    0.081337
H       2.895791    0.943731    0.931550
H       2.445940    0.428627   -0.698973
H       4.214559    2.173046   -1.205658
H       2.467839    4.100352   -1.962516
H       0.355053    3.842985   -0.114537
H       2.200109    4.911842    1.288777
H       2.432989    3.274452    1.969337
