19

O      -0.157370    1.380941    0.053203
C       0.032112   -0.006575    0.033124
C       0.882416   -0.707622   -1.079256
C       1.117557   -1.809923   -0.005685
C       0.970577   -0.696357    1.065612
O       0.051014   -2.751254    0.064174
C      -1.232140   -2.184977   -0.044651
C      -1.891623   -1.497574    1.129729
C      -1.328902   -0.685887   -0.017713
H       0.709184    1.800983    0.068832
H       0.389432   -0.985763   -2.013043
H       1.814378   -0.172614   -1.286368
H       2.035589   -2.395672   -0.038736
H       1.903331   -0.131305    1.165545
H       0.602664   -0.963753    2.056375
H      -1.857981   -2.761152   -0.718880
H      -2.971776   -1.571670    1.200130
H      -1.382898   -1.499559    2.085268
H      -2.021994   -0.192855   -0.692365
