21

C       0.165807    1.470662    0.189378
C      -0.173498    0.019943   -0.160696
C       0.758170   -0.555437   -1.217404
O       0.378085   -1.899150   -1.475551
C       1.116766   -2.508175   -2.482749
C       2.470182   -3.240264   -2.183880
C       1.699463   -4.304363   -1.368403
C       0.930317   -4.028458   -2.682928
O       2.219329   -4.024616   -3.412307
H       1.185546    1.559921    0.579933
H       0.089080    2.122640   -0.687790
H      -0.515579    1.859440    0.951313
H      -0.115763   -0.610772    0.733876
H      -1.203310   -0.053483   -0.528342
H       0.700881    0.035603   -2.146621
H       1.804021   -0.513983   -0.871627
H       1.133787   -1.930907   -3.415741
H       3.475602   -2.843114   -2.042343
H       2.181991   -5.280745   -1.313142
H       1.230989   -3.989844   -0.435304
H       0.096814   -4.568082   -3.132535
