20

C       0.731865   -0.037586    1.346447
C      -0.042951    0.121309    0.021164
C      -0.350909    1.595831   -0.190451
O      -1.429544    2.100305   -0.022082
C       0.798938   -0.398959   -1.139229
C       0.817976   -1.879070   -1.603047
C      -0.566841   -1.582843   -2.217863
N       0.219492   -0.303963   -2.573685
C       1.351375   -1.287924   -2.926510
H       1.007221   -1.084453    1.506137
H       1.654392    0.553882    1.339998
H       0.123660    0.290655    2.193413
H      -1.003238   -0.391419    0.107542
H       0.531772    2.208698   -0.490407
H       1.786448    0.078844   -1.098112
H       1.158747   -2.767410   -1.058997
H      -0.862774   -2.158810   -3.098409
H      -1.423157   -1.418890   -1.563997
H       2.344677   -0.830515   -2.928456
H       1.165207   -1.845699   -3.847498
