19

C       0.786152    1.768713    0.276049
C       1.385940    0.463167   -0.180992
C      -0.111056    0.610647   -0.080056
N      -0.717911   -0.059216    1.037612
C      -2.026089    0.012437    1.611122
C      -3.231523   -0.216228    0.623858
N      -2.714748   -0.345467   -0.760378
C      -2.645381   -1.493381    0.176321
C      -1.425213   -1.296915    1.152399
H       0.875359    2.014122    1.327926
H       0.806934    2.619421   -0.395943
H       1.824229    0.405199   -1.171076
H       1.869733   -0.150122    0.570309
H      -0.675228    0.673550   -0.999491
H      -2.160709    0.398204    2.616662
H      -4.262553    0.042755    0.826070
H      -3.521662   -0.504244   -1.363992
H      -3.123607   -2.438867   -0.043557
H      -1.009371   -2.110920    1.737643
