18

N      -0.058318    1.455953   -0.200261
C      -0.019607    0.002155   -0.036012
C       0.787858   -0.500876    1.142930
C       0.405923   -1.519837    1.910981
C      -0.856648   -2.301247    1.652638
N      -1.524623   -1.979611    0.384925
C      -1.469388   -0.555864    0.049549
C      -2.255779    0.208272    1.034874
N      -2.849040    0.822128    1.813467
H      -0.348091    1.895447    0.670070
H       0.870949    1.807952   -0.409337
H       0.401988   -0.401444   -0.967694
H       1.707303    0.040317    1.356276
H       0.991623   -1.807267    2.781253
H      -0.649307   -3.377360    1.657029
H      -1.563623   -2.131275    2.477727
H      -1.084544   -2.493177   -0.371243
H      -1.953341   -0.407447   -0.921339
