23

C       0.058419    1.403243   -0.197334
C      -0.166678   -0.093642    0.025428
C      -1.650497   -0.514360    0.099150
C      -2.355093   -0.501938   -1.308288
C      -2.097579   -2.025414   -1.435498
C      -1.800669   -2.078694    0.085425
C      -2.348316    0.175976    1.173161
C      -2.938100    0.732412    2.065725
C      -3.653526    1.403227    3.142646
H       1.127690    1.633360   -0.235667
H      -0.386680    1.742590   -1.138786
H      -0.387921    1.988225    0.611861
H       0.312425   -0.664853   -0.779951
H       0.320818   -0.403872    0.957888
H      -3.416948   -0.264631   -1.218446
H      -1.913545    0.151340   -2.065099
H      -2.927935   -2.635935   -1.796149
H      -1.218959   -2.253812   -2.044099
H      -0.924008   -2.643643    0.414255
H      -2.666049   -2.401087    0.667942
H      -4.553413    0.848483    3.431601
H      -3.027609    1.503924    4.036525
H      -3.968483    2.410249    2.846399
