17

C      -0.044612    1.533519    0.008966
C       0.095073    0.016768    0.001703
O       1.171750   -0.525154   -0.009433
N      -1.113732   -0.700233    0.009031
C      -2.404192   -0.120622    0.021167
C      -3.375692   -1.031152    0.025594
C      -2.760846   -2.401543    0.016010
C      -1.253535   -2.120529    0.005263
N      -0.281884   -2.930935   -0.004907
H       0.962799    1.947597    0.003059
H      -0.586265    1.895447   -0.870887
H      -0.573081    1.888335    0.899649
H      -2.496894    0.952900    0.025581
H      -4.434228   -0.820992    0.034565
H      -3.027064   -3.000192    0.895976
H      -3.040781   -2.993992   -0.863901
H      -0.638432   -3.887702   -0.005318
