21

C       0.119813    1.612674    0.073810
C       0.067364    0.102504    0.040101
O      -1.198294   -0.400371   -0.331778
C       1.250553   -0.751546   -0.368143
C       2.621338   -0.174644   -0.683269
C       3.339055    0.426807    0.494846
C       2.889116    0.415311    1.748057
C       1.590242   -0.201571    2.191488
C       0.736517   -0.765705    1.067920
H       1.086045    1.986728    0.416916
H      -0.061990    2.025592   -0.926979
H      -0.661020    1.998838    0.737087
H      -1.350474   -0.154305   -1.251354
H       0.971755   -1.614709   -0.964879
H       3.251269   -0.974758   -1.097174
H       2.553858    0.573083   -1.488052
H       4.299001    0.890059    0.277789
H       3.489668    0.868987    2.533384
H       1.818418   -1.011700    2.898170
H       1.019071    0.531743    2.779886
H       0.143539   -1.632979    1.339074
