20

C      -0.050665    1.577849    0.005764
C       0.013229    0.061465   -0.033807
C      -1.145497   -0.595100    0.697303
C       0.574631   -0.700598   -1.204827
N       1.266868   -0.685862    0.104198
C       2.521154    0.103750   -0.051940
C       2.624310    0.610590   -1.504847
C       1.392241    0.036214   -2.221937
O       1.161788    0.106932   -3.402676
H       0.715954    2.079414   -0.584768
H      -1.022624    1.912684   -0.369898
H       0.036453    1.927836    1.041024
H      -2.099317   -0.343903    0.221424
H      -1.030228   -1.680755    0.707709
H      -1.183636   -0.248137    1.736154
H       0.088690   -1.615513   -1.531497
H       2.539852    0.912517    0.684065
H       3.347964   -0.569952    0.186761
H       2.643234    1.699751   -1.610507
H       3.516800    0.234822   -2.013677
