19

N      -0.054077    1.286823   -0.140225
C      -0.023630    0.027172   -0.064395
O       1.114477   -0.738253   -0.021368
C       0.728368   -2.137688    0.097674
C      -0.640434   -2.173967   -0.590950
C      -1.223745   -0.909786    0.048860
N      -1.552106   -1.219481    1.451621
C      -0.363373   -1.498223    2.276661
C       0.573263   -2.501737    1.579939
H       0.894274    1.668877   -0.162646
H       1.508134   -2.721897   -0.393808
H      -0.536404   -2.063426   -1.674043
H      -1.222721   -3.067001   -0.361575
H      -2.103664   -0.499502   -0.444414
H      -2.051479   -0.432733    1.853654
H       0.215480   -0.585756    2.491306
H      -0.697414   -1.898773    3.238850
H       0.173579   -3.519968    1.643917
H       1.545449   -2.495177    2.081998
