20

C      -0.181351    1.570157    0.011195
C       0.049539    0.065429    0.012584
C       1.162302   -0.532628   -0.905586
C       1.787275   -1.270990    0.320248
C       2.060952   -2.753585    0.234527
N       2.803062   -0.471266    1.025222
C       1.904054    0.217111    1.820347
O       2.043296    1.128666    2.592598
C       0.722831   -0.597731    1.260452
H       0.739213    2.119755    0.229339
H      -0.552394    1.901561   -0.964881
H      -0.920017    1.856921    0.766916
H      -0.897305   -0.447319   -0.182368
H       0.784148   -1.197749   -1.685948
H       1.831578    0.198453   -1.367358
H       2.885666   -2.960546   -0.458223
H       2.332054   -3.157445    1.214458
H       1.180603   -3.289938   -0.133339
H       3.716712   -0.169112    0.709977
H       0.097715   -1.137652    1.970357
