16

O      -0.101207   -0.085078    0.105326
C      -0.038250    1.117079   -0.008721
N       1.132205    1.839232   -0.083714
C       1.109552    3.296676   -0.128962
C       2.254600    3.875665   -0.964113
O       2.082898    4.832627   -1.676555
C       3.612403    3.216247   -0.770968
C       3.526576    1.809676   -0.246288
C       2.371393    1.196135    0.015751
H      -0.926980    1.772945   -0.068413
H       0.161981    3.648370   -0.539634
H       1.219589    3.709020    0.887422
H       4.140654    3.261518   -1.730551
H       4.193435    3.860254   -0.092307
H       4.450801    1.259249   -0.114409
H       2.293915    0.161563    0.323114
