21

C      -0.014344    1.512684    0.047558
C       0.041521   -0.019677   -0.003870
C      -1.381665   -0.574905   -0.134322
C       1.013707   -0.640950   -1.051543
C       2.370509    0.045728   -0.758795
C       2.295624   -0.722841    0.570958
C       1.539355   -1.862116   -0.136319
O       0.652075   -2.072407    0.963335
C       0.831752   -0.640470    1.182563
H       0.924070    1.968969    0.370875
H      -0.274020    1.934121   -0.929667
H      -0.787131    1.829943    0.756262
H      -1.861528   -0.170736   -1.032951
H      -1.383388   -1.663349   -0.196579
H      -1.995908   -0.284779    0.725956
H       0.643092   -0.780046   -2.066786
H       3.176436   -0.366996   -1.374359
H       2.430909    1.134274   -0.779518
H       3.127345   -0.881784    1.255328
H       1.962476   -2.756850   -0.591065
H       0.615839   -0.322503    2.203018
