17

C       0.047446    1.449881    0.005485
N      -0.022313   -0.002214    0.064031
N      -0.131053   -0.690642   -1.075745
C      -0.173277   -1.978546   -0.717156
C      -0.090835   -2.122496    0.670726
C       0.006901   -0.822655    1.161040
C       0.120677   -0.327148    2.540780
C       0.139103   -1.376595    3.638049
O       0.196203    0.861625    2.795948
H       0.977270    1.807107    0.450611
H      -0.001697    1.718204   -1.049105
H      -0.783089    1.896085    0.554743
H      -0.260964   -2.740899   -1.476463
H      -0.099660   -3.032863    1.247678
H       0.981433   -2.063003    3.502740
H       0.225664   -0.876462    4.602886
H      -0.776899   -1.976097    3.615486
