15

C      -0.141704    1.608934   -0.016060
C      -0.041828    0.090472    0.006015
C       1.155854   -0.594532   -0.696257
C       2.108567   -0.353600    0.520263
O       2.534812   -1.744247    0.620638
C       1.117473   -1.809128    0.281266
C       0.708387   -0.596766    1.172948
H       0.819432    2.081049    0.214406
H      -0.461055    1.968450   -1.000343
H      -0.872074    1.966388    0.717996
H      -1.010902   -0.366823   -0.226519
H       1.437132   -0.615041   -1.749606
H       2.846591    0.427336    0.697871
H       0.645845   -2.784836    0.167198
H       0.482196   -0.619803    2.239433
