21

C      -0.067617    1.524557    0.392301
C      -0.113749    0.033409    0.059078
O       0.318766   -0.743669    1.176954
C      -1.519241   -0.479576   -0.292112
C      -2.054480    0.092981   -1.621149
O      -3.437471   -0.133948   -1.782574
C      -1.501196   -1.998330   -0.358556
C      -2.200087   -2.849644    0.603815
O      -2.746200   -2.641776   -0.706897
H       0.951140    1.817439    0.671925
H      -0.360875    2.146847   -0.457434
H      -0.728994    1.746663    1.235434
H       0.548541   -0.160315   -0.803368
H       1.197926   -0.441715    1.426583
H      -2.212601   -0.166735    0.498485
H      -1.916658    1.178303   -1.652955
H      -1.470052   -0.329661   -2.458125
H      -3.594291   -1.063602   -1.568762
H      -0.644537   -2.425433   -0.881543
H      -1.846393   -3.860812    0.794727
H      -2.753872   -2.387019    1.418436
