18

O      -0.970928    1.445972    0.341804
C       0.055523    0.874967    0.083653
C       1.404642    1.589008   -0.054580
N       2.476808    0.636833   -0.386335
C       2.846237    0.593785   -1.817078
C       2.475072    1.895613   -2.525551
C       2.681645    3.121891   -1.612343
C       1.288421    2.702390   -1.106499
O       1.028718    2.044475   -2.382198
H       0.111109   -0.227347   -0.053648
H       1.618963    2.032356    0.926667
H       3.295516    0.848119    0.165906
H       3.918317    0.384132   -1.896619
H       2.311940   -0.222652   -2.319605
H       2.796276    1.930308   -3.570059
H       3.518681    3.117947   -0.910150
H       2.650777    4.059809   -2.167486
H       0.529703    3.444816   -0.854315
