17

C      -0.036303    1.626270   -0.069606
C       0.025458    0.105430   -0.052014
C       0.730616   -0.646304   -1.197009
N       2.130175   -0.196992   -1.170409
C       1.702518   -1.327448   -0.268105
C       2.375920   -2.662710   -0.281825
C       1.033422   -0.619402    0.895852
O       1.116153   -0.721765    2.085392
H       0.933616    2.042428   -0.350893
H      -0.788774    1.984002   -0.780127
H      -0.302546    2.005379    0.921833
H      -0.961964   -0.330143    0.148191
H       0.279297   -1.056229   -2.091967
H       2.618116   -0.641820   -1.949186
H       2.516006   -3.024059   -1.306416
H       3.359536   -2.609794    0.196729
H       1.781185   -3.402807    0.262484
