25

C      -0.019227    1.641398    0.094302
C       0.005005    0.109995    0.006269
C      -1.392810   -0.536913   -0.070257
C      -2.148132   -0.088774   -1.334738
C      -1.366668   -2.098297    0.068790
C      -0.685782   -2.813515   -1.104679
C      -0.714973   -2.527404    1.405954
C      -2.819401   -2.549796    0.182645
O      -3.361481   -3.372143   -0.509366
H       0.992727    2.035057    0.231339
H      -0.428887    2.101408   -0.809303
H      -0.623774    1.979198    0.943880
H       0.594982   -0.190971   -0.868646
H       0.538788   -0.271829    0.882173
H      -1.961187   -0.170021    0.798963
H      -3.112204   -0.596556   -1.437357
H      -2.347949    0.985426   -1.311609
H      -1.569330   -0.297027   -2.240710
H       0.364851   -2.521217   -1.186614
H      -0.727027   -3.896710   -0.962672
H      -1.182543   -2.598805   -2.053223
H      -1.154127   -1.997455    2.258273
H      -0.847238   -3.601739    1.571037
H       0.359291   -2.328645    1.401513
H      -3.374842   -2.051281    1.014442
