21

O       0.200841    1.358121   -0.252573
C       0.040746   -0.029055   -0.040483
C       0.687540   -0.567526    1.278747
C      -0.387249   -1.453449    1.958774
C      -1.275407   -1.867219    0.764581
C      -1.437085   -0.513016    0.054122
C      -2.228174    0.420248    0.948933
C      -2.127148    0.353039    2.279042
C      -1.237456   -0.652669    2.967525
H      -0.279059    1.804420    0.456294
H       0.515394   -0.496795   -0.909212
H       1.588305   -1.146126    1.053581
H       1.001252    0.269936    1.910034
H       0.059584   -2.312113    2.467752
H      -0.754456   -2.586338    0.121789
H      -2.230268   -2.308245    1.065169
H      -1.899600   -0.583315   -0.933311
H      -2.875082    1.158354    0.482633
H      -2.709607    1.020426    2.910364
H      -1.857090   -1.332332    3.571415
H      -0.580514   -0.142265    3.685708
