16

O       0.161644    0.082804   -0.621782
C       0.068059    1.178957   -0.159122
C      -1.076851    1.972793    0.502068
C      -0.101114    3.168152    0.675194
C       0.728636    3.136462    1.985513
C       1.908376    2.424853    1.235098
C       2.415099    1.178929    1.787525
N       2.805798    0.194805    2.251882
C       1.039312    2.372929   -0.069625
H      -1.883383    2.163216   -0.214494
H      -1.514908    1.537498    1.404878
H      -0.448974    4.140383    0.332235
H       1.009653    4.114357    2.378693
H       0.286395    2.550583    2.793724
H       2.750228    3.106913    1.094388
H       1.534204    2.672803   -0.993550
