21

C       0.056189    1.564990   -0.113834
C      -0.040788    0.034938    0.038905
C       0.680671   -0.483722    1.257274
C       0.017604   -0.863348    2.364120
C       0.673337   -1.406951    3.568103
O       0.039424   -1.710196    4.560917
C       2.182703   -1.608464    3.481472
C       2.850003   -0.578272    2.564718
C       2.187836   -0.565704    1.182312
H       1.094951    1.901299   -0.188081
H      -0.464104    1.892313   -1.018745
H      -0.399481    2.069433    0.743304
H      -1.094937   -0.256186    0.086675
H       0.382137   -0.439749   -0.856809
H      -1.066428   -0.802414    2.416732
H       2.589578   -1.593535    4.495691
H       2.350167   -2.621211    3.085767
H       2.755617    0.418704    3.012704
H       3.921436   -0.783038    2.470921
H       2.453363   -1.479885    0.628066
H       2.576506    0.262244    0.578318
