16

C       0.024603    1.456693   -0.095875
C       0.020753   -0.032296   -0.010915
O       0.589382   -0.816714   -1.102692
C       0.109155   -1.815456   -0.170435
C       0.514480   -1.019212    1.105031
C      -0.889699   -1.148514    1.729897
C      -1.194108   -1.029494    0.219311
C      -2.455755   -1.027092   -0.463815
N      -3.473886   -1.012273   -1.013271
H       1.051306    1.826152   -0.175276
H      -0.535448    1.788879   -0.974653
H      -0.435099    1.891227    0.796861
H       0.218131   -2.870290   -0.416177
H       1.494039   -1.016115    1.578938
H      -1.134969   -2.107550    2.191182
H      -1.231265   -0.320865    2.355453
