15

N      -0.031793    1.399353   -0.091335
C       0.054989    0.027370    0.036565
O       1.103386   -0.559961    0.192063
N      -1.170104   -0.662319    0.004795
C      -1.102708   -2.121465   -0.034260
C      -1.175661   -2.728955    1.301683
N      -1.229055   -3.219663    2.345440
C      -2.418045   -0.067463    0.152776
N      -3.482048   -0.757158    0.091793
H       0.879145    1.826904   -0.169850
H      -0.727941    1.790595   -0.706294
H      -1.941157   -2.486111   -0.630965
H      -0.155810   -2.401134   -0.496707
H      -2.362041    1.004907    0.348984
H      -4.300982   -0.173007    0.242278
