18

C       0.133688    1.395394    0.593473
C      -0.051844    0.240136   -0.407373
C      -1.397304   -0.323526   -0.386257
C      -2.512311   -0.776334   -0.339483
C      -3.846957   -1.334261   -0.306037
C      -4.424926   -1.962216   -1.605696
O      -4.597860   -3.238231   -0.921168
C      -4.030459   -2.754977    0.238408
N      -3.781051   -3.314349    1.328059
H       1.155895    1.781701    0.542684
H      -0.556193    2.214725    0.374028
H      -0.057719    1.057246    1.615200
H       0.178231    0.591342   -1.421558
H       0.674676   -0.553565   -0.191585
H      -4.552015   -0.643659    0.168340
H      -5.382005   -1.566594   -1.952097
H      -3.714779   -2.049927   -2.429803
H      -4.055169   -4.298189    1.316072
