21

C      -0.609599   -0.792901   -0.788990
C       0.715567   -0.349986   -0.156688
C       0.839968   -0.659474    1.327674
C      -0.227602   -0.064865    2.239669
C      -0.201392    1.465352    2.224610
N       0.927256    1.991823    2.785463
O      -1.102981    2.140966    1.765512
C       1.511586   -1.916898    1.745852
N       2.194769   -0.617570    1.923851
H      -1.449344   -0.221784   -0.384079
H      -0.590683   -0.628310   -1.870303
H      -0.799776   -1.857170   -0.613823
H       1.552171   -0.832902   -0.678362
H       0.839037    0.730726   -0.304437
H      -1.225673   -0.379649    1.931252
H      -0.054498   -0.418543    3.260682
H       1.720416    1.386506    2.946535
H       1.076211    2.983750    2.690742
H       1.221264   -2.412330    2.668105
H       1.879379   -2.585285    0.971645
H       2.889378   -0.496452    1.190166
