23

O      -0.077232    1.439886    0.080724
C       0.010534    0.023428    0.158864
C      -1.379624   -0.543834   -0.096694
C      -1.430153   -2.073283   -0.009570
O      -0.966555   -2.538565    1.257947
C      -2.824064   -2.620913   -0.351763
C      -2.905163   -4.132239   -0.355576
C      -3.236728   -4.896064    0.898505
C      -4.237241   -4.829715   -0.229028
H       0.787842    1.803840    0.289532
H       0.714443   -0.373867   -0.591466
H       0.364628   -0.308090    1.144615
H      -2.076926   -0.110223    0.633829
H      -1.721451   -0.216405   -1.085718
H      -0.708301   -2.493181   -0.723809
H      -1.596390   -2.241498    1.924366
H      -3.553461   -2.213667    0.364791
H      -3.116209   -2.229016   -1.335329
H      -2.186407   -4.609524   -1.017924
H      -2.724541   -5.833228    1.084948
H      -3.449888   -4.326643    1.797119
H      -5.119991   -4.213690   -0.089295
H      -4.411731   -5.722258   -0.819734
