16

N       0.733785   -0.039397   -0.582850
C      -0.256774    0.227191    0.296694
O      -0.248810    1.101211    1.133961
C      -1.491344   -0.710709    0.132577
C      -2.458575   -0.079603   -0.775002
N      -3.224538    0.405116   -1.490892
N      -1.102407   -2.016792   -0.398370
C      -0.812825   -3.046110    0.604536
C      -2.057977   -3.108291   -0.206595
H       1.570208    0.519685   -0.562728
H       0.650450   -0.825224   -1.207517
H      -1.952419   -0.762943    1.130976
H       0.027739   -3.693248    0.375771
H      -0.907863   -2.771869    1.652904
H      -2.995750   -2.876898    0.293010
H      -2.141961   -3.799930   -1.038339
