21

C      -0.096142    1.518865    0.029692
N       0.112801    0.079927    0.108274
C       1.385360   -0.556374   -0.153666
C       2.588856    0.258829    0.363624
C       1.932049    0.225630    1.758449
C       2.632281    0.082560    3.051505
N       1.821658    1.285690    2.762587
C       0.752982   -0.586385    1.227660
C       0.017533   -1.655297    1.979648
H       0.737138    2.137879    0.386276
H      -0.300134    1.783389   -1.013022
H      -0.977825    1.775157    0.624199
H       1.434066   -1.335775   -0.907105
H       3.525661   -0.303199    0.325433
H       2.747065    1.240406   -0.095756
H       2.228159   -0.559171    3.830300
H       3.716423    0.168634    3.055979
H       2.431621    2.062607    2.516727
H      -0.590825   -1.218397    2.780412
H      -0.651250   -2.196772    1.306190
H       0.710852   -2.368571    2.437740
