23

C      -0.091660    1.424639    0.040888
C       0.031904   -0.082950    0.103807
C       1.379822   -0.680110   -0.208641
C       0.838325   -0.678828    1.227473
C       0.747005   -2.190593    1.186017
C       1.079276   -3.133048    2.300219
C      -0.335550   -3.056944    1.764830
C       1.347620   -2.220155   -0.245812
C       0.596451   -2.918930   -1.372907
H       0.827917    1.910004    0.385997
H      -0.282424    1.766092   -0.982546
H      -0.912356    1.783237    0.671750
H      -0.861619   -0.619302   -0.212749
H       2.173013   -0.070139   -0.626526
H       1.166979   -0.089766    2.076901
H       1.667154   -4.016513    2.068703
H       1.276524   -2.715349    3.282846
H      -1.094659   -2.587870    2.382972
H      -0.697372   -3.891677    1.172508
H       2.371632   -2.608142   -0.195435
H      -0.427628   -2.545805   -1.470913
H       1.103097   -2.763367   -2.331851
H       0.541046   -4.000211   -1.201704
