16

C       0.102724    1.540142   -0.034721
C      -0.110201    0.015010   -0.002875
O      -1.475614   -0.316207    0.017684
C       0.618832   -0.623976   -1.193225
O       0.248235   -0.677049   -2.330810
C       1.951072   -1.195573   -0.668769
N       1.790412   -1.131988    0.774076
C       0.611260   -0.600548    1.203602
O       0.166915   -0.607952    2.332839
H       1.161660    1.810763   -0.105704
H      -0.427773    1.948908   -0.898062
H      -0.304123    1.974760    0.882738
H      -1.710606   -0.381910    0.955062
H       2.085982   -2.218191   -1.037971
H       2.790956   -0.589897   -1.032837
H       2.389824   -1.625158    1.418392
