14

C      -0.076491    1.430917    0.050038
N      -0.009407   -0.018217    0.042547
C       0.000336   -0.833885   -1.028896
N       0.068625   -2.116107   -0.700038
C       0.104716   -2.129159    0.652810
O       0.175923   -3.261503    1.360803
C       0.058586   -0.842568    1.171257
C       0.070249   -0.350725    2.485063
N       0.078226    0.082535    3.561774
H       0.806269    1.853624    0.537181
H      -0.119661    1.782667   -0.981781
H      -0.968120    1.771269    0.583347
H      -0.043981   -0.450584   -2.037546
H       0.192989   -3.988936    0.725372
