19

C      -0.279571    1.163350   -0.008704
C       1.203141    0.994040    0.271045
C       0.350466   -0.194835   -0.020224
O       0.116153   -1.048612    1.083849
C      -0.851927   -1.958541    0.914671
N      -1.556868   -2.141402   -0.133352
C      -2.434090   -3.278254    0.185451
C      -2.325833   -3.477671    1.725801
N      -1.047430   -2.808174    1.997041
H      -0.916498    1.403448    0.834750
H      -0.595680    1.587428   -0.954879
H       1.922110    1.305240   -0.478090
H       1.530889    1.121067    1.296513
H       0.442888   -0.731531   -0.956533
H      -3.461218   -3.084545   -0.137016
H      -2.088646   -4.173402   -0.349225
H      -3.157659   -2.988983    2.252656
H      -2.300132   -4.528969    2.024109
H      -0.895758   -2.409663    2.912740
