15

C       0.006044    1.360942   -0.168688
O      -0.033464    0.068196    0.403082
C      -1.253496   -0.574928    0.226733
C      -1.557341   -1.429090   -1.052100
C      -0.476387   -2.444882   -0.614486
C      -1.334677   -2.066958    0.617038
O      -2.547965   -2.153960   -0.227711
H       0.976575    1.795160    0.080542
H      -0.099611    1.328043   -1.262803
H      -0.788584    2.004433    0.237259
H      -2.109275    0.025474    0.560599
H      -1.867578   -1.124570   -2.051825
H      -0.622157   -3.460616   -0.983542
H       0.563552   -2.117006   -0.623467
H      -1.375042   -2.519513    1.607656
