15

C       0.032722    1.363011   -0.167098
C       1.474941    1.871182    0.127521
C       2.127250    0.618423    0.648386
C       3.391236    0.269380    1.064656
N       3.667230   -0.973880    1.507776
C       2.654455   -1.833375    1.522189
N       1.381795   -1.620930    1.144156
C       1.162455   -0.394759    0.715813
O      -0.054887   -0.008338    0.297480
H      -0.736253    1.936223    0.355044
H      -0.196990    1.363322   -1.236143
H       1.955746    2.260980   -0.774287
H       1.475057    2.676281    0.869447
H       4.218287    0.975937    1.054982
H       2.875940   -2.835119    1.882160
