20

C      -0.822090    0.632317   -1.078249
C       0.505443   -0.061376   -0.829210
O       0.253928   -1.458592   -0.696514
C       1.416408   -2.234948   -0.450825
C       2.183373   -2.430964   -1.760836
O       3.042826   -1.663540   -2.140167
N       1.809440   -3.561288   -2.475463
C       0.469687   -3.824299   -2.974457
C       1.620967   -3.566790   -3.905538
H      -1.279199    0.272794   -2.004940
H      -1.518374    0.441568   -0.256653
H      -0.672401    1.712585   -1.164561
H       1.210260    0.127566   -1.649556
H       0.975026    0.312372    0.094763
H       2.078914   -1.745071    0.274863
H       1.075402   -3.193308   -0.050388
H       0.102970   -4.837989   -2.837740
H      -0.269321   -3.039712   -2.844715
H       1.671098   -2.605719   -4.410005
H       2.071218   -4.396670   -4.442169
