18

O      -0.239311    0.623574   -0.857144
C       0.010965    1.397113    0.043485
N       1.217119    1.526301    0.655914
C       2.396725    0.778412    0.258646
C       3.521717    1.728883   -0.114543
O       3.830909    2.673663    0.959574
C       5.221625    2.345807    0.856076
C       5.465709    0.923672    1.236217
C       4.973745    1.256031   -0.161171
H      -0.740537    2.089283    0.472019
H       1.336083    2.233976    1.364328
H       2.714427    0.111699    1.068011
H       2.113117    0.164575   -0.600056
H       3.249188    2.297469   -1.011994
H       5.937632    3.157192    0.907065
H       6.508308    0.622849    1.271627
H       4.826801    0.443568    1.970888
H       5.517542    0.990103   -1.056651
