19

C      -0.122909    1.493131    0.011637
C       0.052262   -0.014453    0.001146
O       1.146351   -0.532911   -0.012974
C      -1.223839   -0.841809    0.008657
C      -0.961960   -2.339260   -0.001397
O      -2.216224   -2.993741    0.006804
C      -2.085245   -4.401474   -0.001759
C      -3.401747   -5.025859    0.007438
C      -4.473623   -5.566900    0.014854
H       0.853279    1.979066    0.002935
H      -0.704464    1.816127   -0.859145
H      -0.683475    1.805932    0.899754
H      -1.822148   -0.569997    0.887995
H      -1.837979   -0.561133   -0.856887
H      -0.378098   -2.619580   -0.891518
H      -0.361862   -2.628616    0.874939
H      -1.524136   -4.731878   -0.892934
H      -1.507422   -4.741089    0.875159
H      -5.424170   -6.040234    0.021660
