20

C       0.167724    1.423634   -0.086051
C      -0.001596   -0.070026    0.028701
N      -0.399299   -0.749836    1.024803
O       0.346364   -0.664257   -1.134318
C       0.305522   -2.085834   -1.169271
C      -1.033589   -2.799559   -1.496298
C      -0.912373   -2.219886   -2.940215
C       0.523400   -2.703246   -2.567731
C      -0.145897   -3.982143   -1.982350
H      -0.123833    1.923581    0.838897
H       1.209926    1.667699   -0.313639
H      -0.440843    1.809722   -0.909507
H      -0.605996   -0.138483    1.811385
H       0.880536   -2.489518   -0.333793
H      -1.917373   -2.849503   -0.862892
H      -1.419328   -2.782347   -3.728551
H      -1.053999   -1.145445   -3.055372
H       1.426146   -2.646835   -3.176903
H       0.411973   -4.533883   -1.220391
H      -0.603704   -4.654202   -2.710880
