21

C      -0.010116    1.550493    0.049339
C       0.008101    0.049567   -0.034100
C       0.000624   -0.613935   -1.195762
C      -0.012171   -2.136989   -1.220448
C       0.873395   -2.633609   -0.055533
C      -0.032498   -2.238352    1.130826
C       0.020262   -0.694855    1.291266
C      -1.393361   -2.661998    0.592605
C      -1.387730   -2.610917   -0.739817
H       0.855830    1.931330    0.606838
H      -0.002773    2.009677   -0.943176
H      -0.901699    1.907688    0.582106
H      -0.027117   -0.072443   -2.138100
H       0.278755   -2.524179   -2.199686
H       0.999436   -3.719756   -0.096565
H       1.857614   -2.156635   -0.035995
H       0.237053   -2.721560    2.074375
H       0.925448   -0.413953    1.849596
H      -0.822100   -0.348231    1.908466
H      -2.247867   -2.874533    1.225017
H      -2.232688   -2.769440   -1.399640
