15

O      -0.002833    1.343592    0.039518
N       0.028045   -0.035062   -0.017178
C      -1.114581   -0.611647    0.013859
C      -1.102086   -2.125331   -0.037456
C      -2.219761   -2.657483   -0.895191
C      -3.317206   -1.926822   -1.086569
N      -3.460896   -0.649301   -0.536021
C      -2.452479    0.087038    0.061599
O      -2.664588    1.179521    0.541703
H       0.931869    1.567831   -0.037272
H      -0.119243   -2.450337   -0.388796
H      -1.206417   -2.523700    0.986090
H      -2.139636   -3.645967   -1.328399
H      -4.165469   -2.265978   -1.668811
H      -4.352988   -0.179442   -0.575874
