14

C      -0.184740   -1.196480   -0.003300
C      -0.102089    0.002377    0.018876
C      -0.011065    1.430509    0.035811
C       0.486695    2.157582    1.259616
C       1.367192    2.129999    0.024574
C       2.566594    1.362901    0.007394
C       3.592144    0.722352   -0.023303
C       4.746852   -0.002566   -0.048932
N       5.732112   -0.618870   -0.069828
H      -0.252846   -2.256246   -0.021139
H      -0.761443    1.948433   -0.554047
H       0.023688    3.103620    1.514304
H       0.800562    1.550513    2.099309
H       1.405120    3.043854   -0.560732
