20

C      -0.259969    1.481638    0.045377
C      -0.037040   -0.032121    0.027997
C      -1.313780   -0.791049   -0.347293
C       1.180269   -0.454790   -0.834086
O       1.433765   -0.318963   -1.996170
C       1.921577   -1.075911    0.361019
C       0.743133   -0.626018    1.238569
C       0.762064   -0.134931    2.631022
N       0.199934   -1.463710    2.303046
H       0.650145    2.019900    0.326724
H      -0.566091    1.830207   -0.945994
H      -1.046602    1.752916    0.758618
H      -1.657540   -0.484364   -1.339615
H      -1.154096   -1.873555   -0.363217
H      -2.118352   -0.577658    0.366747
H       2.046551   -2.161173    0.291260
H       2.895975   -0.625443    0.573356
H       1.684556   -0.159414    3.205686
H       0.080306    0.666212    2.906602
H      -0.817122   -1.418913    2.305216
