14

C      -0.026672    1.340922    0.033520
O       0.010625   -0.090250   -0.011850
C       0.614312   -0.620849   -1.069285
N       1.154703    0.086773   -2.032119
O       1.670935   -0.858841   -2.929558
C       1.418665   -2.085013   -2.467717
C       0.746209   -2.039097   -1.282204
C       0.290300   -3.091451   -0.463568
C      -0.103314   -3.981977    0.243669
H       0.987114    1.751860    0.044836
H      -0.561342    1.739358   -0.833735
H      -0.551379    1.593042    0.954742
H       1.767737   -2.907803   -3.072064
H      -0.450443   -4.766491    0.869308
