23

C      -0.004182    1.599130    0.026456
C       0.040729    0.064271    0.008054
C       0.610056   -0.472058   -1.320151
O      -0.007418   -1.680932   -1.734515
C       0.438985   -2.855236   -1.093280
C       0.205124   -2.917279    0.423240
C       1.122773   -1.979748    1.222913
C       0.751799   -0.480216    1.261853
O       1.938264    0.294779    1.449360
H       0.994209    2.026086   -0.094342
H      -0.642674    1.971770   -0.780768
H      -0.405710    1.970257    0.974854
H      -0.991984   -0.302760    0.046115
H       0.396455    0.243297   -2.120685
H       1.703950   -0.585011   -1.262774
H      -0.104716   -3.670531   -1.582275
H       1.515021   -3.010776   -1.290107
H      -0.852428   -2.727081    0.641766
H       0.404529   -3.950345    0.734874
H       1.201301   -2.337464    2.257445
H       2.133592   -2.046483    0.800345
H       0.070130   -0.306501    2.111346
H       2.403907   -0.057637    2.214143
