18

N       0.035116   -1.180084   -0.099059
C      -0.011735   -0.023655   -0.042570
C      -0.025984    1.396706    0.030447
C      -1.126874    2.161563   -0.036381
C      -0.818240    3.623969    0.069825
C      -1.124469    4.276877    1.454380
C       0.348109    4.013408    1.878098
C       0.711604    3.636215    0.409960
C       1.251170    2.214297    0.169136
H      -2.132527    1.772284   -0.151223
H      -1.174382    4.181174   -0.802814
H      -1.356567    5.340617    1.360400
H      -1.904684    3.804142    2.055823
H       0.885238    4.865021    2.300868
H       0.452972    3.169431    2.565541
H       1.296082    4.403545   -0.099055
H       1.877002    1.858945    0.995882
H       1.858245    2.134896   -0.741044
