19

C      -0.809632    1.346685   -0.023998
C      -0.015967    0.060837   -0.087050
O       1.188415    0.177154   -0.886691
C       1.981901   -0.535563    0.088654
C       3.156333    0.295120    0.618208
C       2.563670    0.985207    1.827988
C       1.311972    0.603033    2.089477
C       0.814729   -0.436586    1.121005
O       0.255954   -1.579786    1.720078
H      -0.201343    2.161483    0.377696
H      -1.146774    1.628431   -1.026476
H      -1.694846    1.216967    0.607838
H      -0.641685   -0.765325   -0.454636
H       2.245487   -1.540986   -0.256757
H       4.030816   -0.313583    0.883493
H       3.483173    1.006704   -0.148811
H       3.118031    1.718998    2.404253
H       0.694257    0.971798    2.901441
H       0.784817   -1.798858    2.494908
