25

C      -0.079012    1.593218   -0.068051
C       0.104330    0.079300    0.060962
C       0.625286   -0.566260   -1.222051
C       0.789738   -2.076917   -1.142271
O       0.429001   -2.712032   -0.175878
C       1.458307   -2.761238   -2.339168
C       2.935552   -3.012978   -1.973803
C       0.701656   -4.052116   -2.705338
C       1.237964   -4.768007   -3.947805
H       0.866371    2.092040   -0.310452
H      -0.794377    1.842945   -0.860028
H      -0.452682    2.026949    0.864552
H       0.795798   -0.148462    0.879837
H      -0.842733   -0.396278    0.336250
H      -0.049498   -0.359194   -2.067259
H       1.588809   -0.131294   -1.525989
H       1.428441   -2.072045   -3.193825
H       3.483104   -3.442200   -2.816655
H       3.441704   -2.083530   -1.691997
H       3.002779   -3.703126   -1.127097
H       0.722572   -4.720105   -1.838062
H      -0.354611   -3.801815   -2.865246
H       1.240343   -4.105880   -4.821474
H       2.259743   -5.132388   -3.804695
H       0.615020   -5.634075   -4.192218
