13

N       0.031266    1.349354    0.153393
C      -0.039728   -0.035990    0.056443
C      -1.169580   -0.838204    0.026894
N      -0.634598   -2.123221    0.005858
N      -1.006112   -3.440880   -0.039533
C       0.136726   -4.049905   -0.045220
O       1.239499   -3.238049   -0.010542
C       0.707171   -1.990453    0.020995
N       1.145877   -0.765207    0.049560
H       0.930985    1.694241   -0.153549
H      -0.723499    1.836091   -0.309442
H      -2.224111   -0.635712    0.036326
H       0.301506   -5.112779   -0.073944
