21

C      -0.052380    1.523784   -0.045873
C       0.114491    0.019337    0.012466
C       1.405823   -0.739553   -0.242367
C       2.621379   -0.006797    0.348336
C       1.942644   -0.065754    1.733360
C       2.594282   -0.489688    3.011494
C       1.992777    0.893948    2.889285
C       0.735299   -0.766575    1.135246
O       0.091174   -1.821545    1.764153
H       0.782547    2.047772    0.424947
H      -0.124283    1.869215   -1.083257
H      -0.967125    1.837011    0.470192
H      -0.728256   -0.529758   -0.407536
H       1.455649   -1.522301   -0.989154
H       3.536094   -0.603820    0.304581
H       2.831124    0.988524   -0.057041
H       2.067463   -1.224599    3.611165
H       3.675922   -0.578133    3.033763
H       2.671144    1.739007    2.824122
H       1.073764    1.103645    3.428363
H      -0.765396   -1.512313    2.075776
