21

C       0.087252    1.574168   -0.136258
C       0.068463    0.078912    0.203458
C      -1.318431   -0.530168    0.077420
C      -2.018273   -0.734815   -1.320137
C      -1.070426   -1.705524   -2.014518
C      -0.765935   -2.587761   -1.053529
C      -1.553337   -2.084344    0.155738
C      -2.919691   -1.804223   -0.563529
O      -3.907986   -1.320028    0.308987
H       1.088169    1.998224   -0.008620
H      -0.216641    1.747545   -1.174431
H      -0.598056    2.138428    0.506250
H       0.773816   -0.455831   -0.440898
H       0.418498   -0.063740    1.234705
H      -2.011941   -0.023841    0.754783
H      -2.451044    0.088355   -1.890043
H      -0.769373   -1.683225   -3.052523
H      -0.148583   -3.473831   -1.095203
H      -1.507813   -2.638711    1.093043
H      -3.295614   -2.619194   -1.194975
H      -4.691111   -1.113212   -0.210424
