20

C       0.046403    1.588062    0.061443
C      -0.080498    0.061631    0.012971
C       0.628829   -0.557988   -1.183655
C       2.190933   -0.563301   -1.241149
C       2.152553   -2.016667   -1.801070
C       0.699071   -2.084499   -1.331174
C       0.051678   -3.118226   -0.520395
O      -0.308855   -2.901523   -1.893650
H       1.095881    1.896714    0.116072
H      -0.387481    2.048656   -0.832934
H      -0.468399    2.002680    0.933528
H       0.326061   -0.371908    0.936288
H      -1.142241   -0.216424   -0.017549
H       0.227127   -0.136977   -2.114503
H       2.668993    0.193734   -1.864652
H       2.629373   -0.522647   -0.239574
H       2.216856   -2.042180   -2.892901
H       2.856005   -2.743473   -1.388221
H       0.576365   -4.051638   -0.317485
H      -0.711463   -2.848640    0.208511
