19

C      -0.071497    1.499710    0.057938
C       1.481029    1.487984   -0.033383
C       2.063392    1.158621    1.357422
C       1.697596   -0.311583    1.638860
C       2.531911   -1.220563    0.739189
O       2.338297   -0.849871   -0.629569
C       1.335880    0.120348   -0.779006
C       0.010872   -0.045398    0.025453
O       0.318042   -0.549315    1.328677
H      -0.523260    1.937123    0.950937
H      -0.543468    1.909099   -0.839563
H       1.990262    2.314994   -0.531319
H       3.152823    1.270944    1.371443
H       1.650494    1.825871    2.120991
H       1.831399   -0.585788    2.688172
H       3.601536   -1.140949    0.975108
H       2.219397   -2.263392    0.880041
H       1.158499    0.239642   -1.849019
H      -0.816287   -0.637827   -0.370307
