17

C       0.020303   -1.139269   -0.009507
C       0.002241    0.063643   -0.000124
C      -0.020198    1.496357    0.011683
C      -0.643907    2.427608    1.103227
C      -0.049842    3.395754    0.027367
C       1.207772    2.465569    0.004975
C      -0.669361    2.444984   -1.049708
C      -0.072107    4.828471    0.039194
C      -0.090689    6.031370    0.049156
H       0.036841   -2.200886   -0.018242
H      -1.732436    2.409889    1.191888
H      -0.153773    2.427197    2.079371
H       1.829006    2.467845    0.903400
H       1.807972    2.482467   -0.907516
H      -0.202188    2.460425   -2.036938
H      -1.759680    2.428494   -1.113068
H      -0.106573    7.092993    0.058316
