20

C       0.000397    1.526796    0.043380
C       0.007006    0.021074    0.028370
C       0.516797   -0.965915   -1.056916
N      -0.029978   -1.938509    0.009523
C       0.653655   -0.989306    1.015296
C      -1.177759   -0.950897    0.093996
C      -2.407478   -1.048409    0.932597
C      -2.477641   -1.031706   -0.599448
O      -2.907393    0.125005   -1.262095
H       1.016588    1.926178   -0.042704
H      -0.598337    1.915268   -0.785455
H      -0.430926    1.904994    0.976870
H      -0.023833   -1.009548   -2.005132
H       1.598000   -1.051964   -1.200498
H       1.744176   -1.077770    1.016133
H       0.241609   -1.056121    2.025329
H      -2.630229   -1.982863    1.438421
H      -2.737891   -0.150340    1.446689
H      -2.737468   -1.973759   -1.083722
H      -3.865006    0.180322   -1.174479
