19

C      -0.061248    1.514174    0.014420
C       0.075255    0.004221   -0.002727
O       1.149846   -0.558049   -0.022105
C      -1.173734   -0.733350    0.005613
C      -2.217050   -1.341523    0.012630
C      -3.455290   -2.106613    0.020557
C      -3.232392   -3.630711    0.014345
C      -4.547695   -4.399284    0.022561
O      -4.236995   -5.781430    0.016292
H       0.929312    1.971329    0.006356
H      -0.637039    1.849540   -0.854977
H      -0.614397    1.831567    0.905008
H      -4.044732   -1.817951    0.901773
H      -4.058641   -1.812961   -0.849541
H      -2.655000   -3.917290   -0.870090
H      -2.641075   -3.922431    0.887836
H      -5.134478   -4.123309    0.915000
H      -5.148421   -4.118385   -0.858997
H      -5.060573   -6.277646    0.021337
