14

O       0.058815    1.393637    0.099175
C       0.026942    0.019377    0.070319
C      -0.449298   -0.704541    1.294477
C      -1.355241   -0.717365    0.083763
C      -2.543721    0.072294    0.037225
C      -3.550126    0.727829   -0.018569
C       1.032636   -0.594692   -0.822842
O       1.750544    0.080368   -1.525387
H       0.620111    1.650725   -0.649562
H       0.033170   -1.633583    1.579105
H      -0.737698   -0.057455    2.114183
H      -1.392627   -1.649315   -0.473993
H      -4.435931    1.311443   -0.063507
H       1.069145   -1.703411   -0.831410
