19

C      -0.180334    1.524095   -0.120760
C      -0.035102    0.011227   -0.000743
N      -1.332420   -0.635534   -0.039233
C      -1.479503   -1.980127   -0.077422
N      -0.474566   -2.781567   -0.120729
C      -2.939259   -2.399860   -0.065384
O      -3.829889   -1.576811    0.014012
C      -3.297782   -3.874762   -0.149369
O      -4.680784   -4.058796   -0.125173
H       0.802174    2.001869   -0.090087
H      -0.663884    1.800974   -1.063048
H      -0.776116    1.932676    0.702973
H       0.578065   -0.389730   -0.816259
H       0.487558   -0.255741    0.928301
H      -2.176755   -0.093459    0.054441
H      -0.773737   -3.752121   -0.163670
H      -2.856559   -4.286277   -1.071781
H      -2.811593   -4.397821    0.690216
H      -5.061697   -3.169335   -0.056479
