20

C      -0.002489    1.459151    0.386351
N      -0.043765    0.004233    0.441664
C      -1.050421   -0.594447    0.004319
O      -2.220124   -0.098374   -0.560615
C      -2.762426   -1.454664   -0.711355
C      -2.873216   -1.938028   -2.163531
C      -1.972398   -3.190808   -2.214341
C      -0.800694   -2.870070   -1.260190
C      -1.455455   -2.047670   -0.125070
H       0.874466    1.770670   -0.192093
H      -0.895389    1.917634   -0.054540
H       0.129876    1.852718    1.400370
H      -3.678644   -1.550466   -0.125454
H      -3.903106   -2.141244   -2.467568
H      -2.482534   -1.152224   -2.818266
H      -2.527920   -4.058278   -1.837398
H      -1.642290   -3.437482   -3.227342
H      -0.300932   -3.767845   -0.889658
H      -0.043410   -2.267494   -1.771330
H      -1.530261   -2.586462    0.819970
