22

C       0.253986    1.494687   -0.163932
C      -0.097039    0.030511    0.128558
C       0.583976   -0.513675    1.357993
C       0.324164    0.021206    2.768936
C       1.390696   -0.832337    3.487317
C       1.026865   -2.255798    3.011343
C       1.023486   -1.931256    1.522476
N       2.029711   -0.864546    1.253743
C       2.606051   -0.549746    2.584167
H       1.336158    1.611382   -0.276666
H      -0.223226    1.834675   -1.088060
H      -0.076085    2.158649    0.641859
H      -1.183810   -0.078520    0.243090
H       0.190386   -0.588369   -0.728548
H       0.507494    1.096329    2.862240
H      -0.695535   -0.188594    3.109106
H       1.511418   -0.681676    4.559045
H       1.776147   -3.005003    3.286936
H       0.048441   -2.591395    3.370132
H       0.892512   -2.684898    0.754620
H       2.938924    0.492486    2.610745
H       3.463356   -1.199723    2.785777
