16

O       0.001504    0.001155   -0.056263
C      -0.001821    1.198318   -0.039930
C      -1.246259    2.099592    0.087410
O      -1.653853    2.244088    1.475151
C      -1.446882    3.678230    1.414807
C      -0.752958    3.554523    0.044595
C       0.771695    3.425147    0.025340
C       1.482014    2.728712    1.123098
N       1.178512    2.009486   -0.144568
H      -2.069286    1.774188   -0.555829
H      -2.403423    4.213391    1.385703
H      -0.845673    4.048326    2.251518
H      -1.111291    4.204753   -0.752345
H       1.327423    4.128449   -0.586540
H       2.539046    2.911991    1.289273
H       0.922015    2.429620    2.003965
