14

N      -0.075600    1.386435    0.145326
C      -0.039640    0.012871    0.040527
N      -1.092193   -0.786908    0.044290
C      -0.514116   -2.027144    0.002499
N      -1.350682   -3.136006   -0.004274
C      -1.011766   -4.467741   -0.048681
O       0.102854   -4.921983   -0.092834
N       0.800916   -2.062255   -0.036168
N       1.093331   -0.714942   -0.011661
H       0.627444    1.881000   -0.385350
H      -1.002627    1.750448   -0.024798
H      -2.331301   -2.902030    0.030387
H      -1.927775   -5.092846   -0.038769
H       2.053404   -0.420304    0.034478
