21

O      -0.051466    1.452074   -0.002652
C       0.035143    0.035842   -0.001010
C      -1.383603   -0.518025    0.006661
C      -1.424121   -2.048298    0.005615
C      -2.849045   -2.598964    0.009356
N      -2.844057   -4.059946    0.044154
C      -4.186938   -4.624566    0.014665
C      -4.145835   -6.089660   -0.001594
N      -4.114727   -7.243583   -0.038617
H       0.841314    1.809026    0.000406
H       0.573113   -0.332827   -0.890263
H       0.581917   -0.330790    0.883345
H      -1.902788   -0.126253    0.889916
H      -1.913750   -0.121785   -0.868058
H      -0.894321   -2.429574   -0.879218
H      -0.893881   -2.446617    0.878773
H      -3.377617   -2.245193    0.904793
H      -3.406068   -2.197187   -0.858741
H      -2.311433   -4.420722   -0.741673
H      -4.723726   -4.305223    0.917029
H      -4.800490   -4.293137   -0.844211
