21

C      -0.100512    1.495905    0.108737
C      -0.029063   -0.035114    0.044319
C       0.789366   -0.615072    1.159931
C       2.316433   -0.372811    1.355052
C       2.266748   -1.609648    2.247466
C       1.009587   -2.129690    1.547923
C       0.878600   -1.557511    2.917813
C       0.517534   -2.137840    4.241991
O       0.255668   -0.339643    2.497916
H       0.892170    1.944695    0.000060
H      -0.736049    1.890266   -0.689267
H      -0.512628    1.819547    1.068252
H      -1.038630   -0.459703    0.096024
H       0.404531   -0.358943   -0.909935
H       2.875799   -0.563008    0.434497
H       2.606221    0.588286    1.791582
H       3.087078   -2.187135    2.655473
H       0.749316   -3.076431    1.093972
H       1.040608   -3.086595    4.395014
H       0.800188   -1.458326    5.053263
H      -0.559395   -2.322056    4.308757
