18

C      -0.255716    1.336751   -0.352785
O      -0.217772   -0.045620   -0.628010
C       1.082778   -0.583012   -0.558319
C       0.952893   -2.076879   -0.743882
C       1.026443   -2.803250   -2.018580
C       1.988264   -2.179960   -3.024944
C       3.023343   -2.264512   -1.890741
O       4.176986   -1.999167   -1.765331
N       2.143303   -2.959753   -0.959862
H       0.114334    1.560465    0.659755
H       0.345296    1.912889   -1.073442
H      -1.298158    1.653962   -0.428018
H       1.738719   -0.124236   -1.314276
H       1.541617   -0.382266    0.424430
H       0.291607   -2.521218   -0.003756
H       0.382508   -3.647552   -2.232467
H       2.253169   -2.855216   -3.842670
H       1.753591   -1.195354   -3.435529
