20

C      -0.064174    1.540593   -0.034124
C       0.057120    0.036468   -0.044487
N       1.426956   -0.520370   -0.106625
C       0.625414   -0.725977    1.089280
C       1.043753   -0.303150    2.492690
O       0.580491   -1.569272    3.027000
C       0.164264   -2.041504    1.716598
C      -1.321436   -2.364944    1.738005
O      -1.595478   -3.340204    2.723695
H       0.735208    1.987906    0.562861
H       0.010103    1.943413   -1.049525
H      -1.027415    1.851957    0.384265
H      -0.705855   -0.480212   -0.626934
H       1.453932   -1.365718   -0.672741
H       2.122760   -0.169213    2.629628
H       0.507938    0.547343    2.931197
H       0.742980   -2.929232    1.423787
H      -1.891705   -1.438401    1.912227
H      -1.639546   -2.780973    0.775096
H      -1.199221   -3.007440    3.538802
