14

O       0.030894    0.005581    0.184440
C      -0.020115    1.193642    0.065697
N      -1.147977    1.988585   -0.050821
C      -0.844536    3.386180    0.023968
C      -0.753177    4.067143    1.418721
O      -0.025204    3.180488    2.260595
C       0.726993    4.022021    1.389320
C       0.718635    3.353330   -0.001172
O       1.099573    1.993224   -0.044051
H      -2.028809    1.585862    0.223230
H      -1.333159    3.992750   -0.741947
H      -1.430786    4.770931    1.887548
H       1.472664    4.668599    1.835688
H       1.215589    3.916119   -0.792090
