21

C      -0.246264    1.533680    0.082517
C       0.041746    0.054361   -0.022393
C       0.065699   -0.540598   -1.220661
C       0.312725   -1.998181   -1.552149
C      -0.465565   -2.991992   -0.717299
C      -0.606420   -2.998590    0.609559
C      -0.033080   -2.063648    1.604709
C       1.399987   -1.581510    1.550482
C       0.282649   -0.596532    1.297009
H       0.579295    2.063566    0.575315
H      -0.403867    1.986221   -0.899694
H      -1.141520    1.718881    0.690541
H      -0.115004    0.094954   -2.084873
H       0.041891   -2.151750   -2.601546
H       1.389595   -2.227708   -1.512474
H      -0.960309   -3.783241   -1.275242
H      -1.218619   -3.787559    1.041514
H      -0.416098   -2.219802    2.608220
H       1.947519   -1.503530    2.483349
H       2.001171   -1.889967    0.704250
H       0.077649    0.065703    2.133077
