18

C      -0.035294    1.529726   -0.100676
C      -0.046273    0.038062    0.106958
O       1.192915   -0.661640   -0.070720
C       0.617096   -0.615761    1.240606
C       1.375592    0.049247    2.376502
C       1.645938   -1.105034    3.375666
N       0.657236   -2.106244    3.003146
C       0.103423   -1.949577    1.763258
O      -0.645302   -2.713915    1.195952
H       0.836670    1.993653    0.366841
H      -0.014435    1.763361   -1.169979
H      -0.941102    1.978618    0.321064
H      -0.898685   -0.498579   -0.311341
H       2.296148    0.518960    2.027942
H       0.756421    0.817565    2.849921
H       2.667676   -1.493409    3.272004
H       1.513559   -0.787886    4.414530
H       0.541074   -2.974249    3.501964
