15

C       0.089392    1.404633    0.032992
N       0.011913   -0.044400    0.142441
C      -1.241595   -0.624047    0.030826
C      -2.510012   -0.070945   -0.000022
C      -3.363007   -1.200095   -0.040865
O      -4.710811   -1.143141   -0.092365
N      -2.719748   -2.350939   -0.042204
N      -1.395874   -1.972767   -0.024896
H       1.130758    1.713300    0.147854
H      -0.293269    1.794060   -0.922513
H      -0.489334    1.859957    0.841948
H       0.718121   -0.519777   -0.402870
H      -2.786317    0.968189   -0.022188
H      -5.025271   -2.055634   -0.123228
H      -0.702429   -2.666890    0.191315
