13

O       0.070849    1.350251    0.243929
C       0.085073    0.026187   -0.017691
C       0.217096   -0.759915   -1.127305
O       0.520789   -0.754031   -2.469435
C       0.291380   -2.130637   -2.837891
O       0.350413   -2.953894   -1.657295
C       0.132401   -2.065627   -0.647957
N      -0.054634   -2.189040    0.638963
N      -0.032711   -0.855822    1.034552
H       0.178092    1.831919   -0.582625
H      -0.709530   -2.221304   -3.283845
H       1.070336   -2.447191   -3.533579
H      -0.463842   -0.624533    1.914443
