21

O      -0.083538    1.419159   -0.051139
C       0.013837   -0.001926   -0.008559
C       0.845871   -0.445474    1.202964
C       1.115786   -1.962303    1.291263
C      -0.085237   -2.780155    1.703146
C      -1.251723   -2.795081    1.060958
C      -1.566883   -2.024451   -0.202265
O      -2.906503   -2.260367   -0.627249
C      -1.429334   -0.505658   -0.037855
H       0.808491    1.778718   -0.008756
H       0.521145   -0.368210   -0.920114
H       1.813824    0.072440    1.143980
H       0.355403   -0.097290    2.119163
H       1.493782   -2.310214    0.318175
H       1.928297   -2.132388    2.003894
H       0.017184   -3.377197    2.605914
H      -2.077422   -3.384745    1.454642
H      -0.867638   -2.340452   -0.998496
H      -3.012497   -3.208725   -0.752997
H      -1.953224   -0.181363    0.867297
H      -1.926455   -0.033900   -0.890877
