19

C      -0.103321    0.775827   -2.089350
C       0.057619   -0.339037   -1.078901
C       1.350273   -0.629580   -0.360298
C       2.621036    0.163491   -0.574842
C       0.185597   -0.031087    0.396074
C       0.048416    1.272966    1.170075
O      -0.692212    0.550305    2.210058
C      -0.580466   -0.645365    1.525741
O      -0.997909   -1.712901    1.844953
H       0.478371    1.663629   -1.827362
H       0.221107    0.448306   -3.082661
H      -1.152401    1.079750   -2.166078
H      -0.552152   -1.215631   -1.284181
H       1.515551   -1.680377   -0.134723
H       2.426318    1.225808   -0.744435
H       3.278475    0.083825    0.297084
H       3.172215   -0.214976   -1.442111
H       0.965334    1.704145    1.579426
H      -0.575660    2.050530    0.722702
