23

C      -0.138114    1.535262   -0.003376
C      -0.036645    0.029788    0.111502
C       1.239855   -0.711127   -0.220774
C       0.735250   -0.678500    1.204322
C       1.512129    0.095020    2.252681
C       0.150742   -1.961866    1.756258
C      -1.108539   -1.880078    2.655798
C      -1.722004   -2.854597    1.634289
O      -0.565003   -2.753268    0.776230
H       0.800263    2.035176    0.253161
H      -0.388252    1.825245   -1.030108
H      -0.918598    1.939225    0.652016
H      -0.934364   -0.498921   -0.197900
H       1.154127   -1.640831   -0.771838
H       2.124428   -0.123894   -0.449807
H       1.972824    0.994898    1.839410
H       0.869588    0.405012    3.085878
H       2.317440   -0.521729    2.669820
H       0.958292   -2.560541    2.206096
H      -1.005172   -2.245589    3.678252
H      -1.571324   -0.891230    2.665772
H      -1.863329   -3.879846    2.000006
H      -2.637454   -2.529947    1.126642
