19

C       0.022932    1.516989   -0.085451
C       0.062182    0.004623    0.134627
O       0.659619   -0.321480    1.386228
C      -1.336980   -0.620995   -0.020086
N      -1.364634   -2.070517   -0.014802
C      -1.229356   -2.790452    1.244638
C      -1.582453   -2.767096   -1.168044
O      -1.637011   -3.974477   -1.270071
H       1.018473    1.941337    0.066194
H      -0.311185    1.767539   -1.097186
H      -0.665171    1.998526    0.621482
H       0.720932   -0.457803   -0.609794
H       0.182405    0.154972    2.075340
H      -1.989051   -0.241859    0.781861
H      -1.767534   -0.277382   -0.967469
H      -2.007571   -2.469678    1.949173
H      -1.352569   -3.851806    1.029476
H      -0.252440   -2.606182    1.695547
H      -1.710470   -2.088170   -2.035321
