21

C      -0.299545    1.533394    0.082370
O      -0.098281    0.187335   -0.277765
C      -1.205848   -0.659643    0.010643
C      -1.085263   -1.867975   -0.926909
C      -2.301446   -2.755808   -0.960227
C      -3.107705   -3.119878    0.036981
C      -3.041885   -2.833636    1.512353
C      -1.970938   -1.944657    2.082694
C      -1.215517   -1.032831    1.475235
H       0.602573    2.082909   -0.198397
H      -1.161690    1.969863   -0.446988
H      -0.465058    1.661787    1.162978
H      -2.137662   -0.126382   -0.244160
H      -0.896887   -1.477523   -1.932338
H      -0.188974   -2.436340   -0.647743
H      -2.551820   -3.137410   -1.948040
H      -3.947059   -3.763636   -0.223815
H      -4.021846   -2.441653    1.834960
H      -2.981218   -3.806100    2.026198
H      -1.835656   -2.065392    3.156262
H      -0.494911   -0.481948    2.075369
