19

C       0.184237    1.430688    0.166667
C      -0.071267   -0.077719   -0.007976
C      -1.572409   -0.347512   -0.137734
C       0.726800   -0.599496   -1.234567
C       2.137643   -0.844284   -0.726061
O       3.162020   -0.907316   -1.348794
C       2.032633   -1.006117    0.825237
O       2.965618   -1.209995    1.552624
C       0.563325   -0.851418    1.180456
H       1.253306    1.654721    0.262405
H      -0.194394    1.993041   -0.693059
H      -0.313421    1.809624    1.065263
H      -1.992460    0.177182   -1.002854
H      -1.775229   -1.416613   -0.262986
H      -2.111305   -0.005962    0.752835
H       0.324488   -1.567368   -1.566940
H       0.714662    0.070657   -2.097576
H       0.426928   -0.372759    2.153245
H       0.133788   -1.861236    1.250226
