15

N      -2.443684    1.180590   -0.162154
C      -2.260826    0.004186    0.244412
O      -1.224265   -0.719525   -0.258668
C      -1.187929   -2.072972   -0.022856
C       0.054587   -2.639453    0.267504
N       0.228321   -3.942271    0.472530
C      -0.847843   -4.732693    0.400448
C      -2.123801   -4.260748    0.111030
C      -2.303332   -2.899110   -0.115651
H      -3.221627    1.606261    0.337890
H      -2.833068   -0.538533    1.005765
H       0.927992   -1.995221    0.326013
H      -0.678933   -5.791366    0.577772
H      -2.962153   -4.945630    0.049742
H      -3.274947   -2.495687   -0.377987
