19

C       0.180550    1.706806   -0.007666
C       0.107308    0.187233    0.014656
C       0.636771   -0.659674   -1.188044
C       1.324599   -1.654376   -0.200193
C       2.749037   -2.146858   -0.489853
C       3.240267   -3.098548    0.498736
C       3.623979   -3.899379    1.308026
C       1.126125   -0.574648    0.881113
O       1.692368   -0.313792    1.902921
H       1.183566    2.047175   -0.284716
H      -0.531448    2.128641   -0.723950
H      -0.046739    2.115786    0.981213
H      -0.902870   -0.146020    0.285643
H      -0.110109   -1.080563   -1.862235
H       1.373386   -0.101631   -1.774510
H       0.669529   -2.508153    0.006253
H       2.766350   -2.612468   -1.484012
H       3.426076   -1.284554   -0.541887
H       3.972697   -4.593070    2.032093
