14

N      -0.035519    1.372547    0.132327
C       0.001603    0.004674    0.033549
N      -1.058028   -0.735695    0.016787
C      -0.671694   -2.156428   -0.008022
C       0.835366   -2.132761   -0.026695
N       1.828506   -2.972994   -0.053208
O       2.972081   -2.142361   -0.038038
C       2.597043   -0.847525   -0.001162
C       1.243499   -0.773848    0.005938
H       0.730220    1.880019   -0.281738
H      -0.944915    1.775454   -0.042994
H      -1.068503   -2.678511    0.870665
H      -1.096600   -2.649942   -0.889663
H       3.406670   -0.134782    0.018999
