18

C       0.150031    1.349033    0.209596
C      -0.188325    0.078700   -0.568322
N      -1.467902   -0.485707   -0.160702
C      -1.622324   -1.830991    0.053608
O      -0.706319   -2.636017    0.034734
N      -2.933980   -2.211758    0.307909
C      -3.214568   -3.581774    0.671874
C      -4.346729   -4.134844   -0.083695
N      -5.254700   -4.559892   -0.657501
H       1.112971    1.750566   -0.120376
H      -0.604229    2.128532    0.052722
H       0.208352    1.145088    1.282591
H      -0.188942    0.285771   -1.647566
H       0.554109   -0.701377   -0.391525
H      -2.292247    0.065146   -0.342138
H      -3.617898   -1.513212    0.549018
H      -2.304982   -4.149938    0.453638
H      -3.424261   -3.700051    1.743732
