19

C      -0.826393    1.479403    0.192129
C      -0.119403    0.150084    0.087612
C      -0.729681   -1.101699    0.706889
C       0.560133   -0.527442    1.243141
O       1.774891   -1.111129    0.851569
C       1.782472   -1.195821   -0.581911
C       0.815636   -0.087407   -1.090529
C       3.145354   -1.076293   -1.082177
C       4.256237   -0.978974   -1.528694
H      -0.116252    2.311868    0.126121
H      -1.563041    1.605050   -0.610057
H      -1.360688    1.569002    1.143346
H      -1.620181   -0.961902    1.311223
H      -0.706465   -2.041269    0.164597
H       0.617019   -0.110435    2.242012
H       1.390645   -2.179776   -0.878856
H       0.312152   -0.400168   -2.009970
H       1.373963    0.829217   -1.304972
H       5.242797   -0.895047   -1.912667
