21

C       0.472161    1.194567    0.326765
C       0.234731   -0.276479    0.105978
C       0.717347   -1.159604   -1.087090
C      -0.079876   -2.126117   -0.159343
C       0.683935   -1.460114    1.021019
C      -1.172602   -1.019981   -0.023264
C      -2.145280   -0.996752    1.162414
C      -1.995194   -0.698381   -1.252068
O      -2.118834   -1.396782   -2.227305
H       1.544310    1.402146    0.414020
H       0.084195    1.793255   -0.504407
H      -0.010300    1.541676    1.247218
H       0.308192   -0.957576   -2.075867
H       1.795803   -1.331893   -1.132722
H      -0.255941   -3.189430   -0.318274
H       1.762213   -1.640517    1.047268
H       0.262044   -1.532502    2.023446
H      -1.648057   -1.079722    2.129317
H      -2.718606   -0.062310    1.169996
H      -2.865697   -1.818693    1.085468
H      -2.549958    0.268978   -1.178132
