16

O      -0.012179    1.338796   -0.098358
C       0.014355   -0.079236   -0.087686
C      -1.395531   -0.566172   -0.017992
C      -2.538978    0.162925    0.009415
O      -3.614636   -0.642846    0.058958
N      -3.185433   -1.961984    0.059229
C      -1.874254   -1.912480    0.022108
C      -1.067671   -3.176999   -0.004083
O      -0.163780   -3.209335   -1.103182
H       0.892508    1.654431   -0.174630
H       0.499451   -0.488549   -0.986197
H       0.584263   -0.463555    0.775105
H      -2.732106    1.222829   -0.000776
H      -0.438533   -3.242797    0.890217
H      -1.749508   -4.036802    0.002301
H      -0.690065   -3.206807   -1.910034
