16

C       0.125846    1.570210    0.061696
C      -0.035519    0.045247   -0.043505
C       0.737038   -0.582623   -1.224002
O       1.003762    0.293288   -2.285285
C       2.030493   -1.097583   -0.586865
O       3.057378   -1.336114   -1.175018
N       1.789006   -1.220055    0.766456
C       0.592011   -0.623990    1.185105
O       0.191535   -0.619870    2.318606
H       1.180247    1.857339    0.112824
H      -0.307133    2.053780   -0.815342
H      -0.377283    1.931686    0.961472
H      -1.098658   -0.204933   -0.067688
H       0.191483   -1.474315   -1.578369
H       1.855494    0.018954   -2.653506
H       2.455941   -1.609253    1.419166
