13

O       0.129790    1.404152   -0.209080
C       0.070337    0.013191    0.014430
C      -1.389379   -0.512464    0.045747
C      -2.111773   -0.070757   -1.234036
O      -3.058345    0.665092   -1.249302
C      -1.416361   -1.964445    0.150907
C      -1.414849   -3.165795    0.194083
H      -0.290776    1.854279    0.531157
H       0.603273   -0.453998   -0.819380
H       0.575530   -0.290908    0.941432
H      -1.925035   -0.055185    0.887034
H      -1.674766   -0.497010   -2.163525
H      -1.426303   -4.226550    0.248717
