20

C       0.018555    1.486870   -0.150790
C      -0.023714   -0.032826    0.064811
C       0.728364   -0.429765    1.343312
C      -1.466211   -0.551502    0.084718
O      -2.122421    0.054800    1.174322
C      -2.198572   -0.521801   -1.285659
O      -2.106683   -1.953414   -1.409592
C      -1.617398   -2.091188   -0.062415
H       1.053098    1.839720   -0.204288
H      -0.479598    1.779816   -1.080898
H      -0.478260    2.005345    0.673588
H       0.462533   -0.519970   -0.791118
H       0.256906    0.020095    2.221148
H       0.740719   -1.515161    1.487660
H       1.767740   -0.089958    1.300047
H      -3.031195   -0.261588    1.201395
H      -3.240282   -0.174066   -1.215657
H      -1.705316   -0.003060   -2.115461
H      -0.706906   -2.699156   -0.013998
H      -2.370882   -2.521778    0.614234
