20

C      -0.142461    1.506701   -0.037416
C       0.101584   -0.004977   -0.073648
C       0.764266   -0.538190    1.191753
C      -0.058459   -0.548811    2.536946
C       0.147537   -2.073484    2.603307
C       0.203890   -2.954958    3.807697
O      -0.434872   -2.603862    1.399746
C       0.895108   -2.064965    1.333237
H       0.797406    2.059658    0.072870
H      -0.625550    1.852580   -0.956552
H      -0.788878    1.785739    0.801896
H      -0.845411   -0.536620   -0.218251
H       0.732728   -0.252922   -0.937664
H       1.734924   -0.054502    1.351325
H       0.435905   -0.001580    3.343391
H      -1.104191   -0.235798    2.471635
H      -0.779596   -3.022297    4.287078
H       0.515239   -3.965072    3.528333
H       0.909444   -2.560098    4.546065
H       1.671662   -2.723954    0.957856
