21

C      -0.062328    1.259460    0.177425
O      -0.393746    0.002690   -0.381772
C       0.551651   -0.519665   -1.265879
C       0.441154    0.021047   -2.676255
C       1.878466   -0.960534   -0.730309
C       0.842417   -2.009903   -1.089291
C       0.174448   -2.746393    0.034199
C      -0.735245   -3.887885   -0.381189
O       0.338592   -2.445519    1.195326
H       0.885692    1.221096    0.729710
H       0.007320    2.048351   -0.585041
H      -0.866840    1.513196    0.870965
H       0.644634    1.097132   -2.699690
H       1.157322   -0.466133   -3.343647
H      -0.568007   -0.140856   -3.067671
H       2.759272   -0.864209   -1.355318
H       2.038064   -0.861572    0.338020
H       0.957581   -2.569239   -2.012496
H      -0.168048   -4.645891   -0.933933
H      -1.190661   -4.340980    0.499964
H      -1.516596   -3.519522   -1.055727
