19

C      -0.224788    1.447512    0.135226
C       0.143836   -0.003006   -0.020188
O      -0.380154   -0.900461    0.975833
C       1.041954   -0.752316    0.884007
C       1.732572   -1.885381    0.149371
C       1.097175   -1.900467   -1.254258
O      -0.030552   -2.788218   -1.402165
C      -0.921681   -1.691609   -1.695615
C       0.183650   -0.653282   -1.398701
H       0.447351    2.085458   -0.448585
H      -1.246758    1.628648   -0.216112
H      -0.170246    1.747435    1.184626
H       1.512977   -0.291808    1.750964
H       2.809442   -1.688823    0.089416
H       1.591136   -2.850499    0.645417
H       1.836715   -2.076305   -2.044697
H      -1.258777   -1.712558   -2.739369
H      -1.785839   -1.676780   -1.024683
H       0.411817    0.062639   -2.189819
