20

C       0.025281    1.432521   -0.176604
C       0.016582   -0.086776    0.032300
N       0.750819   -0.468351    1.248320
C       2.108198   -0.534361    1.298375
O       2.847714   -0.386783    0.348094
C      -1.383104   -0.656613    0.106556
C      -2.106084   -1.074404   -1.157797
C      -1.617394   -2.118804   -0.201212
O      -0.550985   -2.904293   -0.644669
H       1.053200    1.797040   -0.242083
H      -0.496315    1.690722   -1.103113
H      -0.476681    1.946074    0.651030
H       0.552852   -0.560017   -0.793570
H       0.244988   -0.491653    2.120988
H       2.474226   -0.764305    2.320061
H      -2.002901   -0.225114    0.891537
H      -3.171171   -0.889869   -1.236672
H      -1.557374   -0.994273   -2.090158
H      -2.359561   -2.647855    0.396740
H       0.070188   -3.005857    0.085191
