16

O       0.104814    0.367128   -0.795466
C      -0.058652    1.196104    0.047260
O      -1.271731    1.756213    0.251798
C      -1.476534    2.579906    1.411652
C      -0.946361    3.999157    1.191473
C       0.397775    3.981882    0.448783
C       1.377470    2.943620    0.982074
O       0.921101    1.574319    0.913057
H      -2.556567    2.575088    1.572220
H      -0.995913    2.108861    2.273189
H      -1.667716    4.588989    0.617408
H      -0.842762    4.483960    2.169392
H       0.227201    3.798162   -0.617835
H       0.882346    4.961945    0.515687
H       2.318444    2.994378    0.422816
H       1.601225    3.120818    2.039382
