19

O      -0.382462    1.286389   -0.247997
C       0.011801   -0.023197    0.014864
C      -1.176903   -0.969051    0.235987
O      -0.580391   -1.515415    1.439445
C       0.533151   -0.601825    1.373310
C       1.802767   -1.155303    0.655370
C       1.706314   -2.589657    0.063765
C       1.292196   -1.994329   -1.319878
C       1.291771   -0.568332   -0.705020
H       0.403288    1.821282   -0.401477
H      -2.095489   -0.413921    0.459854
H      -1.385954   -1.737765   -0.514993
H       0.669247   -0.035762    2.299306
H       2.754377   -0.856882    1.097977
H       2.654450   -3.130783    0.049922
H       0.950284   -3.209454    0.547928
H       2.069308   -2.110842   -2.079417
H       0.351444   -2.346078   -1.750676
H       1.833919    0.208072   -1.253174
