22

C       0.128913    1.514620   -0.011865
C      -0.069871   -0.011172    0.001980
C      -1.582238   -0.325757    0.060493
C       0.556977   -0.614505   -1.282137
C       0.747416   -2.125236   -1.213511
N       2.125151   -2.587163   -0.928339
C       1.065455   -2.729415    0.103522
C       1.126339   -1.823779    1.278401
C       0.603451   -0.598782    1.231472
H       1.192346    1.774943   -0.002967
H      -0.319318    1.957460   -0.908313
H      -0.340256    1.981908    0.861262
H      -2.110136    0.149641   -0.774598
H      -1.760970   -1.404047    0.011832
H      -2.025906    0.042878    0.991544
H      -0.063593   -0.348737   -2.145940
H       1.540443   -0.160840   -1.439871
H       0.162155   -2.722954   -1.907625
H       2.278229   -3.491336   -1.370775
H       0.712718   -3.739687    0.303475
H       1.596225   -2.193639    2.186185
H       0.631442    0.035725    2.115477
