17

C       0.237633    1.415843    0.287054
C      -0.098381   -0.052261    0.080070
C       0.633730   -0.702849   -1.151970
N       1.654155   -1.566457   -0.569735
C       1.419080   -1.600322    0.681786
N       2.046805   -2.369809    1.618435
O       0.401391   -0.842046    1.188283
C      -1.594721   -0.305471   -0.003774
O      -2.402105    0.508407   -0.367710
H       1.319868    1.566413    0.247922
H      -0.236943    2.010744   -0.496927
H      -0.134899    1.766312    1.253142
H      -0.053509   -1.286217   -1.779868
H       1.072469    0.072223   -1.788993
H       2.922444   -2.763646    1.312164
H       2.044182   -2.004363    2.557854
H      -1.880613   -1.344396    0.274050
