21

C       0.709203   -0.072282    1.533139
C       0.148441    0.040431    0.110078
C      -1.233807   -0.591740   -0.019290
C      -2.028193   -0.629751   -1.360965
C      -1.089533   -1.401486   -2.308629
C      -1.166330   -2.697598   -1.477930
O      -2.579728   -3.035278   -1.639604
C      -2.793686   -1.917849   -0.773411
C      -1.458837   -2.117371   -0.030222
H       1.698390    0.389447    1.609112
H       0.053612    0.423072    2.258037
H       0.806570   -1.119667    1.838827
H       0.086777    1.099162   -0.175215
H       0.853451   -0.423431   -0.588149
H      -1.886155   -0.173675    0.759956
H      -2.552129    0.246926   -1.738411
H      -1.506857   -1.571843   -3.302995
H      -0.096410   -0.959238   -2.401336
H      -0.490917   -3.528398   -1.675637
H      -3.788037   -1.828301   -0.339322
H      -1.335388   -2.782665    0.822660
