9

N      -0.013954   -1.103178   -0.003336
C      -0.013035    0.052430    0.003106
C      -0.001262    1.478980    0.010934
N      -1.126551    2.187774    0.029787
N      -0.653519    3.445866    0.030458
C       0.697914    3.449616    0.012545
N       1.150462    2.214330   -0.000270
H      -1.299207    4.219899    0.043299
H       1.290273    4.351822    0.009662
