14

C       0.072297    1.443404    0.005019
O       0.060548    0.008304    0.009419
C       0.584464   -0.601094   -1.044152
C       0.689931   -1.953268   -1.275417
C       0.261088   -3.110049   -0.439260
N       1.300826   -2.056701   -2.493999
N       1.570652   -0.955278   -3.014360
O       1.091529    0.089912   -2.043443
H       1.097247    1.821005   -0.043080
H      -0.497780    1.831615   -0.843349
H      -0.396128    1.740872    0.942598
H      -0.471220   -3.735081   -0.960534
H       1.108603   -3.748345   -0.169129
H      -0.198260   -2.748153    0.483796
