15

O      -0.010872    1.473187   -0.188064
C       0.058554    0.071065   -0.139255
C      -1.334993   -0.557240    0.049262
C      -1.394731   -2.092614    0.062044
O      -2.327057   -2.485484    1.099236
C      -2.638232   -1.463117    1.927680
O      -3.335858   -1.560595    2.890396
C      -1.939997   -0.197626    1.387249
O      -1.877212    0.851902    1.972872
H      -0.439474    1.764411    0.628236
H       0.489103   -0.263439   -1.089076
H       0.723154   -0.286423    0.665233
H      -1.997616   -0.152782   -0.726723
H      -1.753518   -2.523505   -0.873391
H      -0.422246   -2.535845    0.302649
