21

C      -0.043817    1.539012   -0.003289
C       1.450002    1.885916    0.055173
C       2.143298    1.520489    1.382206
C       1.794873    0.097188    1.744079
C       0.454588   -0.514564    1.364136
C      -0.007856   -0.007888   -0.017849
C       1.096764   -0.303327   -1.060413
C       2.196997    0.679322   -0.637163
C       2.866287    0.352663    0.712118
H      -0.611127    1.943102    0.842320
H      -0.497666    1.920065   -0.925746
H       1.710009    2.875143   -0.323149
H       2.517117    2.227425    2.113828
H       2.187848   -0.213269    2.709143
H       0.536056   -1.609432    1.350784
H      -0.297563   -0.262909    2.123407
H      -0.971456   -0.453819   -0.280361
H       1.426371   -1.347998   -1.046094
H       0.738882   -0.077282   -2.071814
H       2.898901    0.954770   -1.425046
H       3.887431    0.013990    0.843778
