19

C      -0.034549    1.637681    0.029637
C       0.119833    0.117016    0.068514
C       1.300788   -0.748994   -0.300948
C       2.612187   -0.380279    0.410547
C       2.561796    0.742105    1.373180
N       2.009154   -0.565079    1.777546
C       0.682000   -0.857910    1.085284
C      -0.127433   -1.931515    1.746586
H       0.836015    2.137830   -0.400967
H      -0.893581    1.898242   -0.596534
H      -0.220348    2.064821    1.020692
H      -0.773689   -0.364398   -0.329498
H       1.277395   -1.456931   -1.120704
H       3.546329   -0.873809    0.160355
H       3.488525    0.955545    1.901196
H       1.922752    1.601025    1.245082
H      -0.559483   -1.565957    2.686279
H      -0.947369   -2.262449    1.102102
H       0.499922   -2.795698    1.986695
