14

O      -0.086416   -0.022651   -0.001804
C      -0.005211    1.183700    0.007239
C       1.262454    1.946217   -0.000701
C       2.491109    1.274438   -0.020075
C       3.675033    1.997803   -0.027393
C       3.639594    3.394445   -0.015424
C       2.419928    4.068186    0.003866
C       1.232546    3.343221    0.011204
H      -0.920036    1.818943    0.022757
H       2.486436    0.190152   -0.028999
H       4.628475    1.480494   -0.042400
H       4.567067    3.957810   -0.021182
H       2.396973    5.152570    0.013109
H       0.274763    3.856193    0.026212
