17

O      -0.033497    1.574952    0.053776
C      -0.024218    0.183201    0.340521
C      -1.373656   -0.444711    0.053163
C      -2.592748    0.379208   -0.177660
N      -2.035156   -0.438382   -1.252595
C      -1.393574    0.258050   -2.375282
C      -2.378055    0.630100   -3.387540
C      -3.181580    0.955599   -4.219285
H       0.863199    1.908534    0.153372
H       0.753123   -0.334153   -0.245226
H       0.202919    0.004979    1.403596
H      -1.483109   -1.398809    0.568109
H      -3.558313    0.061159    0.206272
H      -2.444365    1.454627   -0.227314
H      -0.838114    1.153069   -2.060816
H      -0.665376   -0.433602   -2.818954
H      -3.892433    1.237389   -4.955717
