18

C      -0.052205    1.582444    0.058497
C       1.497869    1.439758   -0.015931
C       1.797189    0.783149    1.345767
C       0.752603   -0.387128    1.285474
N       1.405959   -1.685428    1.086245
C       2.031263   -1.795168   -0.007759
O       2.135629   -0.871201   -1.001127
C       1.204709    0.210071   -0.922362
C      -0.016358    0.034930    0.007837
H      -0.463905    2.055010    0.953411
H      -0.495868    2.023941   -0.837285
H       2.140002    2.257345   -0.342832
H       2.815875    0.401171    1.435755
H       1.615859    1.473102    2.174913
H       0.122895   -0.444241    2.174335
H       2.580887   -2.697056   -0.267504
H       0.956932    0.479061   -1.949729
H      -0.875303   -0.573957   -0.269475
