19

C       0.248142    1.500391   -0.004642
O       1.165065    0.428790   -0.232809
C      -0.206272    0.105247    0.018714
C      -0.503084   -0.627093    1.304546
C      -2.000848   -0.568433    1.714199
C      -2.282302   -1.878732    2.488713
C      -1.276233   -2.858918    1.919277
O      -1.211985   -2.844856    0.484826
C      -0.216793   -2.119727    1.226057
H       0.381502    2.036264    0.934999
H       0.035909    2.128378   -0.868746
H      -0.739455   -0.275962   -0.853687
H       0.132675   -0.203882    2.093096
H      -2.231018    0.324427    2.299731
H      -2.619723   -0.536175    0.813754
H      -2.089916   -1.759610    3.562163
H      -3.316802   -2.217466    2.376868
H      -1.112140   -3.829148    2.381464
H       0.802105   -2.482837    1.122575
