19

C       0.057537    1.710773    0.077967
C       0.171462    0.215953   -0.109975
O       1.493968   -0.185561   -0.626614
C       1.768632   -0.929588    0.495415
N       2.802784   -1.560482    0.829038
C       0.405441   -0.681885    1.138966
N       0.256760   -0.079488    2.443907
C       0.920127   -0.740472    3.568969
C       1.400023    0.579392    3.078134
H       0.867735    2.095939    0.700886
H       0.091194    2.218270   -0.890480
H      -0.892895    1.948974    0.564556
H      -0.601504   -0.160170   -0.786501
H       3.534877   -1.480426    0.120014
H      -0.212170   -1.584834    1.115571
H       0.329970   -0.810939    4.478363
H       1.554870   -1.595104    3.349639
H       2.353274    0.586623    2.556652
H       1.158744    1.489397    3.619686
