16

C       0.011708    1.552073    0.052973
C      -0.020938    0.057728   -0.042424
C      -0.874980   -0.817084    0.835458
C      -1.712986   -1.882824    0.357106
C      -2.435490   -2.773266   -0.005093
N       0.594004   -0.922270    0.966596
C       1.050366   -1.814551   -0.160186
C       0.537281   -0.773603   -1.171557
O       0.732056   -0.553041   -2.330734
H       0.975983    1.941870   -0.286276
H      -0.769441    1.987704   -0.578320
H      -0.153749    1.880553    1.082559
H      -1.296645   -0.277309    1.681517
H      -3.074123   -3.554721   -0.336784
H       2.141241   -1.879749   -0.172601
H       0.610646   -2.813228   -0.162154
