18

C      -0.006946    1.464593   -0.125702
N       0.025889    0.009111   -0.022520
C      -0.911316   -0.665571    0.947285
C      -0.698656   -2.125886    0.502101
C       0.849254   -2.065770    0.442074
O       1.634493   -2.929262    0.169768
C       1.091734   -0.607368    0.855628
C       0.126132   -0.522809    2.092091
O       0.037743    0.712891    2.753198
H       0.828765    1.783611   -0.757983
H      -0.931231    1.747759   -0.641266
H       0.042510    2.003027    0.827483
H      -1.926833   -0.281566    1.041858
H      -1.041062   -2.885620    1.210843
H      -1.129813   -2.326735   -0.480227
H       2.109290   -0.220536    0.832964
H       0.180773   -1.353728    2.813712
H       0.822163    0.819954    3.301455
