20

C       0.099251    1.570841    0.004766
C       0.031350    0.038462    0.008141
C       0.543652   -0.544684   -1.328010
C       0.764745   -2.035056   -1.284613
C       1.074345   -2.678786   -0.157280
C       1.228506   -1.982509    1.142776
C       2.216967   -0.825510    1.249338
C       0.738746   -0.552075    1.218462
H       1.138149    1.913607   -0.058804
H      -0.446468    1.990740   -0.847242
H      -0.333582    1.990647    0.919091
H      -1.024382   -0.255291    0.097945
H      -0.168180   -0.290313   -2.122331
H       1.479187   -0.037778   -1.610063
H       0.687040   -2.582309   -2.220027
H       1.236143   -3.753422   -0.168725
H       1.117526   -2.599410    2.028746
H       2.742743   -0.690927    2.188675
H       2.813576   -0.609450    0.369730
H       0.300084   -0.253397    2.167398
