14

N      -0.025304    1.414726   -0.092718
C       0.012175    0.016227   -0.038793
C      -1.150527   -0.753849   -0.069091
N      -1.150480   -2.091903   -0.087335
C      -0.002777   -2.740860   -0.071468
O      -0.001723   -4.093805   -0.086211
C       1.219366   -2.056488   -0.035442
F       2.361812   -2.743148   -0.015027
C       1.231817   -0.679600   -0.021188
H       0.749596    1.869289    0.369771
H      -0.902510    1.811426    0.214648
H      -2.125509   -0.272209   -0.082948
H      -0.932453   -4.354134   -0.110849
H       2.183151   -0.158844   -0.001808
