10

O      -0.110849    1.346317   -0.218510
C       0.028241    0.034079   -0.006677
N       1.221355   -0.457103    0.048513
O       1.308619   -1.836600    0.272755
C       0.195948   -2.617536    0.424359
O       0.303954   -3.797785    0.615561
C      -1.085872   -1.888240    0.332138
N      -1.180316   -0.627146    0.127457
H       0.774994    1.728280   -0.299870
H      -1.987874   -2.485458    0.449200
