20

C       0.127492    1.648746    0.013561
C      -0.255934    0.179558   -0.196976
C       0.660748   -0.517636   -1.179739
O       2.039053   -0.639618   -0.648858
C       2.058220   -1.984399   -0.858360
O       2.949137   -2.751917   -0.670588
C       0.619456   -2.062032   -1.396139
C      -0.335082   -2.881713   -0.527730
N       0.632544   -2.441581   -2.806999
H       1.150473    1.729544    0.391487
H       0.070418    2.210743   -0.924767
H      -0.541344    2.128234    0.733800
H      -0.237733   -0.349331    0.761942
H      -1.282417    0.108451   -0.579872
H       0.705359    0.009001   -2.136760
H      -0.302930   -2.596324    0.527333
H      -1.366505   -2.765883   -0.879834
H      -0.067006   -3.940277   -0.595693
H       1.157400   -3.305969   -2.912759
H      -0.312838   -2.637263   -3.126030
