17

C       0.143456    1.453914    0.005394
C      -0.053933   -0.018890   -0.009977
C      -1.157859   -0.813347   -0.100102
C      -0.706124   -2.170463   -0.062257
C      -1.534402   -3.412865   -0.129604
C       0.659420   -2.100367    0.049743
O       1.062819   -0.784754    0.082096
C       1.645227   -3.096966    0.131233
C       2.476077   -3.968081    0.199928
H       0.774730    1.780676   -0.828599
H      -0.820886    1.960080   -0.073941
H       0.630461    1.781614    0.930744
H      -2.179165   -0.473589   -0.184066
H      -2.109941   -3.458159   -1.061197
H      -0.903613   -4.303487   -0.077215
H      -2.254390   -3.457132    0.695512
H       3.209945   -4.732781    0.260601
