14

O      -0.042752    1.277424    0.009199
C       1.083392    1.988003    0.002327
C       2.314148    1.420103   -0.012480
C       3.655716    1.898759   -0.022588
C       4.473876    0.783993   -0.036581
C       3.689947   -0.415500   -0.035630
C       2.363294   -0.042201   -0.020911
C       1.119703   -0.708233   -0.012674
N      -0.049850   -0.131782    0.001603
H       0.867256    3.051789    0.010210
H       3.966552    2.933218   -0.019854
H       5.556133    0.806309   -0.046807
H       4.079178   -1.424076   -0.044866
H       1.045381   -1.793257   -0.017906
