18

C      -0.041594    1.448031   -0.255162
C       1.454247    1.586790    0.211895
C       1.269871    0.214647    0.844582
C       1.917211   -1.030108    1.436932
C       0.587430   -1.819011    1.688476
C       1.154807   -0.884743    2.711867
N       0.344775    0.245652    2.106306
C      -0.465909   -0.754549    1.264578
C       0.037984   -0.108346   -0.023538
H      -0.740873    1.955946    0.408884
H      -0.241729    1.743074   -1.285981
H       2.142878    1.569690   -0.638838
H       1.714222    2.410688    0.880323
H       2.848950   -1.537773    1.224855
H       0.547682   -2.901362    1.676058
H       1.415062   -0.981534    3.758747
H      -1.511842   -0.935442    1.522175
H       0.111403   -0.709912   -0.931356
