21

C      -0.028089    1.538773    0.017110
C      -0.006780    0.002035    0.065362
C       0.692096   -0.476220    1.347364
C      -1.448805   -0.529797    0.019916
C       0.763140   -0.528467   -1.208104
C       2.133244   -0.010592   -1.300369
C       3.252600    0.418489   -1.381065
C       0.771898   -1.993333   -1.297468
C       0.773530   -3.192279   -1.375598
H       0.982876    1.953946    0.034987
H      -0.528141    1.901867   -0.888106
H      -0.574385    1.933977    0.879521
H       0.157587   -0.107919    2.228914
H       0.718448   -1.568674    1.397809
H       1.721261   -0.108576    1.395830
H      -1.968342   -0.195090   -0.885268
H      -1.473386   -1.622380    0.039853
H      -2.012681   -0.160174    0.882355
H       0.207135   -0.147990   -2.078114
H       4.244122    0.791179   -1.456977
H       0.781940   -4.251702   -1.448582
