21

C       0.059379    1.591052    0.039943
O       1.442311    1.528894   -0.370159
C       1.346850    0.100346   -0.617934
C       2.491094   -0.706972    0.008506
C       2.123223   -1.214041    1.409998
C       1.393921   -0.104610    2.218664
C       0.090971   -0.567617    1.497591
C       0.761070   -1.965959    1.362879
C      -0.029335    0.055033    0.106842
H      -0.067078    2.138732    0.981562
H      -0.572370    2.052226   -0.731164
H       1.281855   -0.081990   -1.698893
H       2.740415   -1.559808   -0.635031
H       3.375848   -0.060188    0.043222
H       2.967798   -1.722903    1.880748
H       1.355260   -0.343616    3.284760
H       1.729726    0.925552    2.085712
H      -0.850433   -0.493897    2.049496
H       0.530675   -2.561493    0.472598
H       0.604846   -2.578356    2.254693
H      -0.849825   -0.402766   -0.452251
