14

N      -0.118927    1.222720   -0.571938
C      -0.059588    0.074155   -0.084605
O       0.995147   -0.644369    0.471477
C       0.169986   -1.844008    0.631443
C       0.101720   -2.296658    2.015150
N       0.017586   -2.670777    3.104747
C      -1.028043   -1.048676    0.083281
C      -2.456102   -0.988583    0.460647
N      -2.032559   -1.522887   -0.842201
H       0.772919    1.716274   -0.538857
H       0.518944   -2.646757   -0.023006
H      -2.852965   -1.726753    1.151192
H      -2.906894   -0.001531    0.509707
H      -2.162826   -0.835678   -1.582635
