18

C      -0.050252    1.536228    0.241956
C      -0.084094    0.036769   -0.060071
N      -1.431075   -0.495480   -0.099734
N      -2.141450   -0.664792    1.064484
C      -3.329282   -1.104133    0.669852
N      -4.349960   -1.324574    1.596570
C      -3.417371   -1.237566   -0.739404
C      -2.171418   -0.829363   -1.174877
O      -1.622229   -0.717580   -2.406961
H       0.984854    1.885142    0.311875
H      -0.553809    2.104563   -0.545676
H      -0.552906    1.739936    1.190579
H       0.376458   -0.178669   -1.027246
H       0.465659   -0.517530    0.707176
H      -3.981828   -1.362956    2.539071
H      -4.894008   -2.153938    1.398998
H      -4.254613   -1.558372   -1.337531
H      -2.266113   -1.017000   -3.055656
