14

N      -0.025251    1.365283    0.158984
C      -0.021516   -0.010468    0.049474
N      -1.175864   -0.623194    0.014104
N      -1.080015   -1.992098   -0.009798
C       0.047771   -2.741179   -0.020348
O       0.090546   -3.967948   -0.044785
C       1.265478   -1.883503   -0.005651
N       2.411397   -2.575736   -0.035810
N       1.225816   -0.580219    0.029872
H       0.804909    1.807926   -0.202759
H      -0.892750    1.806299   -0.105397
H      -1.966813   -2.475513   -0.026000
H       2.337748   -3.581112   -0.050839
H       3.299418   -2.106421   -0.014771
