15

C      -0.004841    1.539679    0.002499
C       0.009650    0.039229   -0.027304
C      -0.048628   -0.708176   -1.175621
O      -0.124591   -0.104182   -2.376813
N      -0.037297   -2.078090   -1.236215
C       0.035048   -2.700402   -0.101626
N       0.097029   -2.073211    1.088177
C       0.090070   -0.657808    1.233195
O       0.149191   -0.168545    2.347563
H       0.897091    1.924230    0.490797
H      -0.066976    1.953468   -1.004141
H      -0.853189    1.905404    0.591022
H      -0.154935   -0.813150   -3.033229
H       0.047823   -3.786839   -0.083891
H       0.152641   -2.595847    1.951906
