23

C      -0.003049    1.595214   -0.066493
C       0.097114    0.071516   -0.014003
C       0.798275   -0.570420   -1.236911
C       1.228265   -1.961395   -0.754842
O       0.697812   -3.084664   -1.397747
C       2.554704   -2.058493   -0.054154
C       1.265031   -1.924827    0.747343
C       0.806793   -0.543722    1.239611
C       1.927846    0.312963    1.844196
H       0.985201    2.065089   -0.111360
H      -0.559437    1.915667   -0.953924
H      -0.524010    1.995837    0.810011
H      -0.923070   -0.333542   -0.003120
H       0.120975   -0.659333   -2.090921
H       1.657101    0.031183   -1.562169
H       1.204643   -3.231695   -2.203657
H       3.019349   -3.038880   -0.027477
H       3.251364   -1.228388   -0.113476
H       0.962448   -2.803791    1.305407
H       0.057516   -0.690163    2.026084
H       2.695746    0.577090    1.109992
H       1.534200    1.247425    2.255535
H       2.424198   -0.227130    2.656719
