17

N       0.033392    1.446293    0.054735
C       0.014522    0.028453    0.025769
C      -1.055687   -0.815722   -0.108618
O      -2.388740   -0.715536   -0.399197
C      -2.928666   -2.031132   -0.172831
C      -1.736099   -3.013393   -0.318522
N      -0.654682   -2.116920    0.027837
C       0.712486   -2.151279    0.195937
C       1.141053   -0.842486    0.227062
H       0.647848    1.822092   -0.660547
H      -0.893065    1.820009   -0.116333
H      -3.340104   -2.080152    0.843108
H      -3.726574   -2.203842   -0.896658
H      -1.819494   -3.861542    0.366502
H      -1.636186   -3.395796   -1.343101
H       1.245584   -3.077826    0.327208
H       2.153527   -0.514710    0.410738
