15

N       0.008380   -1.166142   -0.198320
C       0.016546   -0.017101   -0.070190
C       0.047826    1.429954    0.053036
C      -0.552329    2.298508   -1.081880
C       0.701189    3.225876   -1.018100
C       1.344089    2.310444    0.059804
C       0.934853    2.632068    1.503900
O      -0.311405    1.897779    1.367120
H      -0.648770    1.761238   -2.027654
H      -1.514251    2.738642   -0.814276
H       1.262968    3.259642   -1.952848
H       0.516785    4.251491   -0.689644
H       2.342928    1.919421   -0.121206
H       1.572424    2.180076    2.272583
H       0.765268    3.687753    1.743708
