18

C       0.094097    1.455307    0.266870
C       0.045610    0.016223    0.049991
C       0.014324   -1.174813   -0.123099
C      -0.040995   -2.619189   -0.330445
C      -1.437235   -3.212257   -0.138223
C      -2.539209   -2.628945   -0.992006
C      -1.543494   -4.587146    0.370254
O      -1.790026   -3.467752    1.226039
H       1.087872    1.772768    0.601756
H      -0.137271    2.007248   -0.650935
H      -0.626434    1.766274    1.031358
H       0.304960   -2.861563   -1.345039
H       0.643013   -3.122002    0.362929
H      -2.328147   -2.781465   -2.056207
H      -3.495538   -3.099872   -0.753301
H      -2.624299   -1.552788   -0.816613
H      -2.417068   -5.188277    0.120343
H      -0.641806   -5.157186    0.593692
