17

O      -0.009854    1.417056    0.332405
C      -0.029183    0.000669    0.329182
C      -1.342405   -0.568779   -0.240661
C      -1.394761   -2.060171   -0.205814
N      -1.050178   -2.872755   -1.174672
C      -1.206793   -4.157328   -0.685519
C      -1.653375   -4.101904    0.606656
O      -1.982227   -5.011819    1.555145
N      -1.769927   -2.771532    0.915792
H       0.000736    1.713022   -0.583486
H       0.819848   -0.421980   -0.227368
H       0.086932   -0.301042    1.375898
H      -2.181397   -0.129729    0.312292
H      -1.442856   -0.261634   -1.286862
H      -0.997965   -5.029051   -1.286247
H      -1.851725   -5.892248    1.189700
H      -2.096940   -2.409051    1.796050
