21

C      -0.002890   -1.176172   -0.235318
C      -0.036219    0.016575   -0.087436
C      -0.037425    1.464476    0.089820
C       1.377932    2.056768    0.094928
C       2.221632    2.037680   -1.214505
C       2.645475    3.515416   -0.960135
C       1.855043    4.563977   -1.774088
C       0.700174    4.493363   -0.728924
C       1.578222    3.591405    0.192964
H       0.011988   -2.229477   -0.366506
H      -0.633681    1.922434   -0.709542
H      -0.543238    1.718944    1.031167
H       1.945206    1.576803    0.899005
H       3.028927    1.303166   -1.237353
H       1.625753    1.910054   -2.124607
H       3.710606    3.684659   -0.796888
H       2.341490    5.543335   -1.786157
H       1.610228    4.291825   -2.805569
H       0.431963    5.454969   -0.285684
H      -0.221980    4.030739   -1.090982
H       1.787995    3.999647    1.183304
