20

C       0.006670    1.648970   -0.255611
C      -0.001646    0.144778    0.004921
C       0.985232   -0.580735   -0.937041
C       2.249884   -0.743425   -0.031780
C       1.616328   -0.989497    1.338918
C       0.397983   -0.450004    1.338168
C      -0.993466   -0.827500    1.664573
C      -1.999041    0.208495    1.345658
N      -1.397064   -0.483198    0.196127
H       1.034526    1.990521   -0.413271
H      -0.561034    1.868756   -1.166915
H      -0.405571    2.248734    0.557606
H       0.589182   -1.571724   -1.179405
H       1.175750   -0.046224   -1.873930
H       2.872733   -1.587414   -0.344553
H       2.893491    0.146784   -0.067311
H       2.026764   -1.675282    2.070514
H      -1.274273   -1.768504    2.125548
H      -3.038125   -0.072649    1.497803
H      -1.797352    1.257197    1.533181
