23

C       0.104510    1.522910   -0.020898
C      -0.020058   -0.009934   -0.018854
C      -1.507424   -0.405805    0.085475
C       0.566217   -0.572943   -1.342491
C       0.843575   -2.054395   -1.305921
C       1.156185   -2.694096   -0.177176
C       1.250251   -1.998279    1.128289
C       2.188905   -0.802719    1.255028
C       0.703751   -0.586691    1.196880
H       1.154315    1.832344   -0.049717
H      -0.401763    1.957319   -0.890575
H      -0.347855    1.956561    0.877988
H      -2.088617    0.039322   -0.729696
H      -1.629052   -1.491686    0.037621
H      -1.939698   -0.058868    1.030557
H      -0.125642   -0.338425   -2.160604
H       1.491575   -0.031465   -1.586971
H       0.806935   -2.596536   -2.246773
H       1.361969   -3.761079   -0.190849
H       1.146209   -2.622827    2.009636
H       2.690980   -0.647578    2.204160
H       2.793262   -0.563314    0.386898
H       0.239389   -0.309869    2.140663
