21

O      -1.382503   -0.590877   -2.564477
C      -2.519283   -0.678475   -1.698939
C      -2.152017   -0.678891   -0.199140
O      -3.244373   -0.173871    0.560427
C      -1.638735   -2.025047    0.326275
C      -0.572614   -2.702331   -0.528771
O       0.514203   -1.855828   -0.851421
C      -1.543360   -2.192374    1.819052
C      -2.584908   -2.962738    1.041833
H      -1.115435    0.333407   -2.598599
H      -3.202376    0.161321   -1.874114
H      -3.039960   -1.602896   -1.973438
H      -1.354704    0.061800   -0.060019
H      -3.988896   -0.775006    0.448750
H      -0.165381   -3.554668    0.027165
H      -1.032148   -3.108985   -1.442798
H       0.200638   -1.325194   -1.596527
H      -0.690359   -2.730103    2.218993
H      -1.901692   -1.375920    2.435409
H      -3.623947   -2.684748    1.185188
H      -2.441035   -4.028082    0.891251
