19

C       0.130814    1.687592   -0.180697
C      -0.053427    0.178558   -0.043818
C      -1.465749   -0.241460   -0.360762
O      -2.014326   -1.208021    0.110728
C       1.031650   -0.657062   -0.865241
O       1.632060   -0.084275   -1.989538
C       1.836428   -0.835698    0.443858
C       0.561640   -0.443586    1.236962
O       0.690583    0.473110    2.299282
H       1.161501    1.993383    0.020251
H      -0.133492    2.014633   -1.191357
H      -0.498750    2.221750    0.535753
H      -1.984209    0.390218   -1.118860
H       0.597029   -1.600695   -1.203736
H       2.130937    0.689844   -1.708700
H       2.298883   -1.807589    0.630393
H       2.594629   -0.052053    0.548039
H      -0.024420   -1.322266    1.527922
H       0.914955   -0.015484    3.096691
