17

C       0.082020    1.559398   -0.061742
C       0.119842    0.047948    0.070424
N       1.109394   -0.656201   -0.782059
C       1.358747   -1.647560    0.279252
C       2.746146   -2.102123    0.406679
N       3.834387   -2.476471    0.511860
C       0.786847   -0.632824    1.321089
C       1.822201    0.233404    2.001937
O       1.673365    0.684766    3.107943
H       1.082912    1.992634    0.005657
H      -0.342396    1.842491   -1.030661
H      -0.545184    1.998424    0.720782
H      -0.897519   -0.358036   -0.038624
H       0.775682   -1.029340   -1.664762
H       0.715010   -2.537847    0.237376
H       0.106456   -1.035518    2.070088
H       2.732618    0.448386    1.403899
