17

C       0.003663    1.527533   -0.218932
N       0.026436    0.079356   -0.046168
C      -1.086373   -0.500962    0.766685
C      -0.201325   -1.706453    1.204767
C      -0.578036   -1.530730    2.675696
O       0.418937   -1.971355    3.569544
C      -0.511673   -0.075611    2.170304
C       0.685037   -0.421629    1.198863
H       0.984812    1.861249   -0.573049
H      -0.732117    1.786845   -0.987658
H      -0.241503    2.095408    0.694876
H      -2.126257   -0.516778    0.436434
H      -0.020374   -2.612629    0.629179
H      -1.574017   -1.895002    2.965973
H       0.173208   -1.694530    4.457646
H      -0.691743    0.846645    2.722455
H       1.755224   -0.340376    1.385095
