20

C      -0.166559    1.614389   -0.047099
C       0.030232    0.105450   -0.016939
C       1.177698   -0.604306   -0.811314
C       2.448033    0.056746   -0.246452
C       2.083172    0.039370    1.280039
C       0.698090   -0.627052    1.195095
C       1.001649   -1.790254    0.193814
O      -0.006414   -2.737702   -0.057897
H       0.748392    2.167781    0.179723
H      -0.511560    1.939540   -1.035085
H      -0.925412    1.919979    0.682011
H      -0.933008   -0.361907   -0.252501
H       1.122107   -0.762160   -1.889696
H       3.344561   -0.529266   -0.468275
H       2.611152    1.066182   -0.632645
H       2.785449   -0.556020    1.870547
H       2.049020    1.039371    1.719975
H       0.161704   -0.807733    2.128132
H       1.900418   -2.378826    0.401981
H      -0.831729   -2.281859   -0.249438
