20

C       0.027819    1.481140   -0.018699
C       0.000282    0.028189    0.076313
C      -0.011274   -1.173278    0.158773
C      -0.063102   -2.628534    0.245397
C      -1.402028   -3.219825   -0.247951
C      -1.437683   -4.729208   -0.153267
C      -1.810392   -5.404117    1.144646
C      -2.750339   -5.459261   -0.035322
H       0.840507    1.824292   -0.668856
H      -0.909682    1.872229   -0.429896
H       0.174314    1.943796    0.963854
H       0.758546   -3.063099   -0.340250
H       0.107558   -2.947648    1.281894
H      -2.219431   -2.792362    0.344927
H      -1.571487   -2.900241   -1.283217
H      -0.671202   -5.231540   -0.739711
H      -1.287151   -6.309810    1.430715
H      -2.088699   -4.770819    1.981276
H      -3.656719   -4.864245    0.011973
H      -2.867129   -6.402130   -0.558147
