18

C       0.084048    1.582732    0.025739
C      -0.004299    0.043157    0.033269
C       0.701471   -0.485354    1.205891
N       1.261127   -0.870961    2.140432
C      -1.469713   -0.490938    0.002499
C      -2.249426    0.022794   -1.236457
O      -3.556951   -0.491717   -1.287648
C      -1.500758   -1.951675    0.006766
C      -1.551646   -3.151648   -0.055275
H       1.122399    1.901529    0.140765
H      -0.292572    1.989120   -0.915065
H      -0.495470    2.009637    0.849352
H       0.510262   -0.348312   -0.853224
H      -1.987885   -0.124288    0.897683
H      -2.353780    1.109040   -1.183264
H      -1.672247   -0.220539   -2.143956
H      -3.488460   -1.454538   -1.268104
H      -1.577325   -4.213820   -0.069007
