20

C      -0.093243    1.509232    0.315947
C       0.007598    0.030658   -0.009493
C       1.339043   -0.511788   -0.470278
C       0.821089   -0.840158    0.912268
C      -1.268530   -0.542971   -0.616427
C      -1.609471    0.030257   -2.023414
O      -1.844221   -1.144941   -2.840917
C      -1.543503   -2.193474   -2.043581
N      -1.212415   -2.003322   -0.835926
H       0.835638    1.874490    0.763852
H      -0.284231    2.114805   -0.578653
H      -0.904981    1.703783    1.027724
H       1.339985   -1.315969   -1.197567
H       2.167319    0.182915   -0.563516
H       1.295334   -0.366567    1.765677
H       0.475726   -1.852778    1.079749
H      -2.089636   -0.345569    0.086600
H      -2.511140    0.645308   -2.050618
H      -0.776430    0.586315   -2.464657
H      -1.621634   -3.160560   -2.528829
