19

C      -0.396503    1.337262   -0.203500
C       0.205366   -0.041327    0.059919
O      -0.827910   -0.982451    0.369264
C       1.105907   -0.551664   -1.090754
O       2.194213   -1.266537   -0.512661
C       2.006493   -1.350253    0.884894
C       1.163454   -0.119962    1.259158
C       1.352902   -2.667031    1.303042
O       1.096997   -3.572470    0.558229
H       0.381068    2.093539   -0.348734
H      -1.022252    1.319271   -1.103160
H      -1.028220    1.637304    0.636747
H      -1.225680   -1.292150   -0.450831
H       0.540916   -1.209281   -1.765851
H       1.510303    0.278006   -1.683807
H       2.993595   -1.327826    1.369315
H       1.800309    0.766733    1.314378
H       0.613263   -0.223708    2.196954
H       1.164297   -2.734956    2.401669
