11

F       0.030910    0.056063    0.003067
C      -0.017668    1.381517    0.010503
C      -1.253294    2.013423    0.030777
C      -1.249934    3.405940    0.037858
C      -0.037276    4.072711    0.024552
F       0.027610    5.401424    0.030457
C       1.133000    3.314250    0.004544
F       2.298903    3.938479   -0.008332
N       1.145737    2.002423   -0.002349
H      -2.168545    1.437026    0.040453
H      -2.170779    3.976812    0.053476
