22

C       0.014277    1.565502    0.012925
C       0.048346    0.034776    0.023324
C       0.707772   -0.508839   -1.255407
N       0.891613   -1.971278   -1.300993
C       2.156737   -2.503559   -0.790492
C       0.893336   -2.728899   -0.040384
C       0.610677   -2.055757    1.293007
C       0.745421   -0.526537    1.267392
O       2.105866   -0.089478    1.235582
H       1.028121    1.972539    0.056774
H      -0.468768    1.942077   -0.894731
H      -0.542051    1.953719    0.872882
H      -0.983834   -0.340450    0.059226
H       0.082776   -0.230628   -2.112601
H       1.675402   -0.013978   -1.395091
H       2.598721   -3.305044   -1.378742
H       2.862219   -1.795140   -0.364228
H       0.421941   -3.706472   -0.137385
H      -0.420321   -2.287311    1.589875
H       1.252293   -2.480020    2.077927
H       0.253354   -0.118980    2.164764
H       2.544303   -0.424587    2.023694
