19

C      -0.318685    1.413994    0.217902
O       0.291139    0.191103   -0.148190
C       0.850019   -0.491721    0.926612
C       0.012580   -1.495559    1.789123
C      -0.111994   -2.429621    0.568118
C       1.354794   -1.930014    0.658822
C       2.590031   -2.437203   -0.023113
O       2.740032   -3.831950    0.163428
O       1.298710   -2.138906    2.137340
H       0.396573    2.086411    0.714248
H      -0.671388    1.886379   -0.701262
H      -1.174417    1.259891    0.890937
H       1.537076    0.125488    1.519833
H      -0.685974   -1.314352    2.605584
H      -0.253006   -3.484536    0.802667
H      -0.704591   -2.083739   -0.279168
H       2.516974   -2.259359   -1.100970
H       3.461006   -1.876691    0.353309
H       2.644239   -3.993407    1.109491
