16

O       0.025117   -0.036508    0.100179
C       0.001517    1.167669   -0.014893
C      -1.308552    1.953555   -0.101601
N      -1.232611    3.183654   -0.886673
C      -0.148578    4.048436   -0.431025
C       1.153344    3.342365   -0.171977
C       1.248970    2.003163   -0.026388
C       2.494425    1.343190    0.169452
C       3.545196    0.779467    0.331785
H      -2.079450    1.292213   -0.504559
H      -1.610543    2.209862    0.925060
H      -1.066229    2.940103   -1.858735
H       0.003753    4.845706   -1.167558
H      -0.464891    4.560563    0.493434
H       2.049883    3.953409   -0.094264
H       4.467277    0.273565    0.478234
