23

C       0.006847    1.503305    0.034327
N       0.076751    0.060661    0.035461
C       1.036405   -0.596908   -0.880893
C       1.421009   -1.538868    0.262170
C       0.663969   -0.607757    1.215617
N       1.304709   -2.993489    0.177480
C       2.617918   -2.376263    0.495142
C       3.656133   -2.526445   -0.598119
C       3.152604   -2.501833    1.907740
H       0.986439    1.989857    0.211954
H      -0.375095    1.855633   -0.929664
H      -0.685392    1.843985    0.811818
H       0.582875   -1.054633   -1.766119
H       1.866650    0.057942   -1.194936
H       1.335158    0.039512    1.806362
H      -0.070913   -1.060326    1.893591
H       0.870345   -3.357916    1.023872
H       3.191057   -2.472931   -1.584937
H       4.416892   -1.740649   -0.527278
H       4.164491   -3.494085   -0.518043
H       3.587488   -3.495040    2.070439
H       3.940374   -1.763917    2.097991
H       2.366167   -2.350467    2.653697
