17

C      -0.029570    1.467308    0.064927
C      -0.002107   -0.036187    0.018423
C       0.616878   -0.960037   -1.075215
C       0.018143   -1.940269   -0.028661
C       0.635734   -1.015154    1.060849
C      -1.230667   -1.009320   -0.028131
O      -2.180350   -1.037046    1.000442
H       0.979654    1.885934    0.144223
H      -0.494942    1.878994   -0.837414
H      -0.608853    1.817197    0.926627
H       0.146944   -0.939115   -2.063355
H       1.706821   -0.948412   -1.149666
H       0.038178   -3.030013   -0.059539
H       1.727403   -1.004730    1.127249
H       0.208229   -1.042126    2.069409
H      -1.804417   -0.989313   -0.959412
H      -1.729221   -1.118571    1.846741
