16

O      -0.607514    0.608836    0.771483
C       0.198827    0.910730   -0.070842
C       1.208872    1.993502    0.101061
O       2.385009    1.872110   -0.751638
C       1.494403    2.908799   -1.017919
C       0.888877    3.306511   -2.376013
C       0.346352    4.578601   -1.673108
C       1.811244    4.403169   -1.194200
N       2.154561    4.114608   -2.653937
H       0.249906    0.407804   -1.061758
H       1.400997    2.313842    1.123161
H       0.416000    2.689382   -3.138812
H       0.195578    5.425410   -2.341460
H      -0.448448    4.453314   -0.936663
H       2.415599    5.062095   -0.572143
H       2.959438    3.481739   -2.694692
