25

C      -0.746166    1.724688   -0.996719
C      -0.435283    0.303999   -0.521293
O      -0.085728    0.294267    0.861859
C      -1.643404   -0.625664   -0.684681
C      -1.383289   -2.095499   -0.384004
C      -0.415722   -2.774195   -1.339359
C      -1.370991   -2.558689    1.055382
C      -2.511956   -2.963299    0.152832
C      -3.924528   -2.475824    0.396733
H       0.119024    2.382287   -0.850538
H      -0.996643    1.739890   -2.062612
H      -1.587905    2.141547   -0.434079
H       0.404097   -0.086211   -1.119404
H       0.668360    0.880067    0.980641
H      -2.435005   -0.236485   -0.036436
H      -2.005634   -0.527852   -1.717274
H       0.586211   -2.333226   -1.287650
H      -0.312352   -3.838009   -1.103487
H      -0.760044   -2.696467   -2.378440
H      -0.641165   -3.305882    1.350625
H      -1.568759   -1.811436    1.815577
H      -2.475543   -3.990682   -0.204220
H      -3.948297   -1.479610    0.846935
H      -4.506952   -2.437049   -0.531354
H      -4.446087   -3.150456    1.085186
