23

C      -0.152213    1.550822    1.456783
C      -0.045457    0.434778    0.409266
C      -1.329388   -0.363278    0.282380
C      -1.381956   -1.759676   -0.260288
C      -0.162974   -2.502020   -0.714976
C      -0.317020   -3.876056   -1.260672
N       0.018256   -2.756879   -2.156824
N      -1.690673   -1.493053    1.145932
C      -0.800315   -1.961985    2.197486
H       0.766626    2.143796    1.495719
H      -0.979372    2.230204    1.224242
H      -0.332289    1.143185    2.456658
H       0.176700    0.874078   -0.571708
H       0.804934   -0.210472    0.645805
H      -2.189047    0.273940    0.064944
H      -2.264054   -2.040926   -0.842501
H       0.769283   -2.263479   -0.213764
H       0.473137   -4.609777   -1.128514
H      -1.320980   -4.292200   -1.297434
H      -0.815249   -2.460323   -2.661130
H       0.275750   -1.841558    2.009676
H      -1.040569   -1.427624    3.122464
H      -0.991197   -3.026367    2.367760
