19

C      -0.034967    1.506515    0.016100
C       0.000416   -0.005790    0.016551
C      -1.209461   -0.686295   -0.604226
C      -1.116544   -2.215091   -0.573194
N      -0.740231   -2.687401    0.747680
C       0.107957   -2.049448    1.615135
O       0.386051   -2.511287    2.706941
C       0.654652   -0.728970    1.151154
N       1.331875   -0.591659   -0.163033
H       0.869604    1.909447    0.476845
H      -0.093455    1.891861   -1.008137
H      -0.905397    1.877271    0.568005
H      -2.104241   -0.364772   -0.057308
H      -1.334507   -0.358887   -1.643301
H      -2.087996   -2.645426   -0.833902
H      -0.410202   -2.565692   -1.342156
H      -1.045894   -3.598133    1.054992
H       1.128822   -0.178157    1.956963
H       1.298813   -1.469664   -0.675562
