12

N      -0.043192    1.255123    0.356669
C      -0.012753    0.051659   -0.017121
O       1.164880   -0.552395   -0.410943
C       1.187520   -1.860816   -0.815564
C       0.089627   -2.611994   -0.850740
N      -1.132891   -2.067029   -0.466998
C      -1.294855   -0.768475   -0.040748
O      -2.365329   -0.316518    0.287724
H       0.892786    1.663938    0.315756
H       2.175887   -2.192874   -1.092584
H       0.098702   -3.643851   -1.168250
H      -1.975239   -2.622552   -0.487549
