17

O      -0.689480    0.705046    0.609059
C       0.143664    0.937222   -0.227637
C       1.277758    1.934944   -0.064974
C       1.257397    2.970314   -1.157435
C       1.875872    2.811980   -2.524519
C       2.354749    3.922037   -1.625058
C       1.323452    5.092931   -1.573441
O       0.218812    4.795776   -2.439926
C       0.264645    4.189785   -1.142813
H       0.126593    0.426173   -1.217493
H       1.200468    2.385156    0.930588
H       2.223366    1.377293   -0.114474
H       2.565777    1.978628   -2.616736
H       1.306393    3.042432   -3.415690
H       3.370734    3.997522   -1.260474
H       1.522570    6.133573   -1.350373
H      -0.588467    4.322428   -0.487850
