16

C      -0.571286    1.396134    0.109033
C       0.472831    0.291785   -0.137233
C       1.060490   -0.228366    1.092306
C       1.514959   -0.646916    2.126799
C       2.107362   -1.169760    3.362827
O       1.456963   -2.303961    3.869362
C       3.578427   -1.487391    3.072004
O       4.020743   -2.595665    3.233270
H      -0.122533    2.247156    0.628319
H      -0.981511    1.749126   -0.841554
H      -1.394422    1.021544    0.723002
H       0.011817   -0.536444   -0.690074
H       1.272140    0.676008   -0.783818
H       2.101348   -0.369923    4.124407
H       2.101082   -3.025856    3.786447
H       4.190701   -0.647654    2.691923
