19

C      -0.085320    1.584551    0.044965
C       1.439433    1.374691   -0.082641
C       1.844324    0.799839    1.290837
C       0.719338   -0.268196    1.398934
C       1.056358   -1.747990    1.659531
O       0.076027   -1.827509    2.717127
C      -0.169555   -0.409542    2.651127
C       0.023729    0.044860    0.059917
O       1.165204    0.154375   -0.847021
H      -0.483966    2.106281    0.919527
H      -0.529737    1.951705   -0.880216
H       2.105373    2.075656   -0.584752
H       2.841113    0.352729    1.262302
H       1.815750    1.541495    2.094931
H       0.846623   -2.447109    0.840679
H       2.073790   -1.929654    2.031963
H       0.200441    0.114914    3.543361
H      -1.235698   -0.178661    2.522560
H      -0.764617   -0.626273   -0.282816
