17

C      -0.124712    1.517887   -0.009407
C       0.055396    0.011972    0.020804
O       1.150366   -0.517565    0.050840
C      -1.159047   -0.810949    0.013462
C      -1.332478   -2.167422    0.035535
C      -2.739294   -2.411665    0.014404
C      -3.441247   -3.734368    0.026327
C      -3.312829   -1.171394   -0.019551
O      -2.379990   -0.192625   -0.020862
H       0.856902    1.992114   -0.007307
H      -0.685982    1.821006   -0.899258
H      -0.703900    1.852751    0.857446
H      -0.534917   -2.893312    0.063872
H      -3.189020   -4.311801    0.922293
H      -4.526861   -3.606247    0.006199
H      -3.160076   -4.343090   -0.839832
H      -4.340218   -0.843386   -0.044605
