17

N      -0.046992    1.333576   -0.104642
C       0.022895   -0.059546    0.010524
N      -1.038131   -0.818149    0.250931
N      -0.531597   -2.064250    0.399812
C       0.821031   -2.121315    0.209388
C       1.564532   -3.411933    0.289655
O       0.998477   -4.429088   -0.535194
C       1.222382   -0.819732   -0.032254
N       2.491976   -0.276228   -0.317790
H       0.468118    1.670118   -0.910857
H      -1.009766    1.644145   -0.159446
H      -1.158860   -2.848681    0.434099
H       2.625235   -3.239585    0.050382
H       1.530913   -3.826942    1.303960
H       0.948303   -4.075012   -1.430059
H       3.239805   -0.946645   -0.189577
H       2.684335    0.528733    0.270628
