21

C       1.210526    0.432027   -0.311502
C      -0.188675    0.493117    0.318883
C      -1.256005   -0.151335   -0.577812
N      -0.202015   -0.065720    1.677617
C       0.055309   -1.263053    1.909431
O       0.396412   -2.315710    1.059187
C       0.644388   -3.211206    2.180023
C       0.150407   -2.112910    3.173270
N       0.960400   -1.593645    4.244369
H       1.513471   -0.603004   -0.491462
H       1.219533    0.967194   -1.266741
H       1.948733    0.899729    0.347023
H      -0.451695    1.550886    0.438592
H      -1.022747   -1.201970   -0.771253
H      -2.240051   -0.097936   -0.102592
H      -1.311753    0.373926   -1.537107
H       0.048468   -4.124154    2.097634
H       1.708809   -3.454867    2.261476
H      -0.842642   -2.350271    3.568418
H       1.049600   -2.266809    4.997652
H       1.893156   -1.357081    3.922444
