16

O       0.114431    1.367909   -0.087815
C       0.009154   -0.017578    0.001902
C       0.303330   -0.642349    1.389608
O      -0.801795   -0.050259    2.172982
C      -1.904890   -0.076329    1.351535
N      -3.066432    0.309144    1.657534
C      -1.439877   -0.637093    0.013933
C      -1.078395   -2.086507    0.295058
C      -0.026031   -2.091399    1.123228
H      -0.342212    1.761703    0.665950
H       0.622164   -0.443651   -0.792487
H       1.232659   -0.386133    1.892134
H      -3.095450    0.629009    2.627984
H      -2.107932   -0.425545   -0.815843
H      -1.629841   -2.934186   -0.088662
H       0.476183   -2.940002    1.566256
