19

C       0.021167    1.546125    0.078197
C      -0.139965    0.027760   -0.051039
C       0.676841   -0.561590   -1.197834
C       2.246233   -0.590544   -1.102908
C       2.217140   -2.100790   -1.368337
C       1.421060   -2.792845   -0.300009
C       0.687314   -2.084956   -1.407408
H       1.066256    1.820039    0.259646
H      -0.298683    2.057386   -0.836926
H      -0.574460    1.942815    0.906284
H       0.146033   -0.452010    0.893260
H      -1.199038   -0.217755   -0.207498
H       0.387492   -0.064567   -2.130766
H       2.726984   -0.010521   -1.893464
H       2.681112   -0.292191   -0.141792
H       2.906905   -2.638777   -2.007217
H       1.401004   -3.876472   -0.360768
H       1.414903   -2.408963    0.717625
H       0.017965   -2.623545   -2.068588
