21

C      -0.858626    1.321115   -2.655529
C      -0.651663   -0.180872   -2.446993
C       0.717758   -0.512988   -1.836461
C       0.873630   -1.997231   -1.575364
C       1.462315   -2.938675   -2.600588
C       1.966653   -2.394559   -3.837200
N       2.383769   -1.971576   -4.830639
N       2.140999   -2.663331   -1.326340
C       3.393545   -1.913628   -1.324152
H      -0.786378    1.867041   -1.708227
H      -0.105001    1.733619   -3.334858
H      -1.843039    1.528581   -3.085491
H      -1.443420   -0.575264   -1.796523
H      -0.751935   -0.704268   -3.405554
H       1.507111   -0.146464   -2.499516
H       0.832896    0.021080   -0.883575
H       0.060402   -2.420730   -0.984737
H       1.067992   -3.946711   -2.701089
H       3.483795   -1.154361   -2.111109
H       3.497984   -1.425891   -0.350864
H       4.217985   -2.622562   -1.440769
