20

C      -0.452908    1.558413   -0.027163
C      -0.030062    0.100377    0.004823
C       0.975732   -0.480961   -1.059209
O       1.671987    0.411790   -1.901700
C       1.804627   -1.011379    0.149793
C       2.973880   -0.236376    0.770819
C       2.755124    1.247620    0.731131
C       1.931359    0.420799    1.687676
N       0.840230   -0.407346    1.128187
H       0.380836    2.249889   -0.145771
H      -1.156140    1.727483   -0.850507
H      -0.972492    1.811337    0.903245
H      -0.938579   -0.514899    0.012912
H       0.531583   -1.292234   -1.651705
H       1.087883    0.652977   -2.627443
H       1.911775   -2.098972    0.197171
H       3.927762   -0.681664    1.022553
H       3.532410    1.816089    1.235044
H       2.358992    1.717533   -0.157028
H       1.958913    0.603416    2.756559
