14

O       0.433862    1.305703   -0.253227
C       0.161450   -0.005607   -0.148514
C       0.272173   -0.974432   -1.120029
N      -0.139385   -2.104799   -0.477075
C      -0.175404   -3.460686   -0.973048
C       1.215956   -4.090166   -1.049374
O       1.495424   -4.966705   -1.819229
N      -0.466395   -1.849097    0.797314
N      -0.287564   -0.567075    0.997946
H       0.245284    1.699710    0.608340
H       0.576148   -0.954605   -2.151381
H      -0.774016   -4.038303   -0.260610
H      -0.655103   -3.510005   -1.953727
H       1.942330   -3.680052   -0.314184
