20

O      -0.125916    1.407021   -0.507864
C       0.000701    0.123019    0.093268
C      -1.354571   -0.531277    0.077922
C      -1.839687   -1.265248   -1.148752
C      -1.530511   -2.035752    0.112393
C      -0.385361   -2.998995    0.179876
C      -0.049104   -3.693335    1.478403
C      -0.656780   -4.475515    0.340171
H       0.718587    1.859237   -0.421128
H       0.729607   -0.495624   -0.452172
H       0.361738    0.210019    1.130946
H      -2.102975    0.042449    0.618051
H      -2.872469   -1.146731   -1.457095
H      -1.139840   -1.362050   -1.973489
H      -2.395975   -2.370944    0.680538
H       0.460711   -2.750958   -0.454198
H       0.994224   -3.861158    1.722521
H      -0.676402   -3.481872    2.338327
H      -1.691195   -4.789655    0.435808
H      -0.029614   -5.178070   -0.197573
