13

N       0.027509    1.322078   -0.057127
C      -0.060106   -0.021967   -0.027136
C      -1.182652   -0.790033   -0.025452
C      -1.005700   -2.201689    0.030733
O      -2.128064   -2.949488    0.035909
N       0.118856   -2.845411    0.078222
O       1.275896   -2.041707    0.069149
C       1.262423   -0.693004    0.018039
O       2.303687   -0.076567    0.007075
H       0.954421    1.714713   -0.113557
H      -0.779152    1.908284   -0.171954
H      -2.185765   -0.383610   -0.060631
H      -1.850433   -3.876237    0.076373
