21

O      -0.188836    1.525089    0.021937
C       0.011226    0.123223    0.135921
C      -1.341304   -0.550120   -0.039618
C      -2.026469   -0.254972   -1.389109
C      -3.020124   -1.416921   -1.559133
C      -2.217751   -2.636310   -1.072509
C      -1.328817   -2.086452    0.047392
C      -0.259396   -2.892044    0.653036
O      -1.482006   -2.657544    1.353936
H       0.656948    1.962313    0.156166
H       0.711303   -0.243594   -0.633522
H       0.434143   -0.133533    1.119715
H      -1.994002   -0.196930    0.768916
H      -2.492126    0.731731   -1.410867
H      -1.281440   -0.280808   -2.195892
H      -3.892903   -1.258215   -0.914553
H      -3.385934   -1.525214   -2.583576
H      -2.830338   -3.464718   -0.708484
H      -1.590020   -3.018580   -1.886829
H      -0.103857   -3.915416    0.309216
H       0.623820   -2.418586    1.079236
