18

C       0.949812    0.764607    0.000182
C      -0.357684    0.002695    0.014325
O      -1.148711    0.069404    0.926953
C      -0.615927   -0.920668   -1.177665
C      -0.080087   -2.323185   -0.891485
C      -0.058291   -3.342661   -2.052117
C       1.459555   -3.397508   -1.787406
O       1.365889   -2.359113   -0.787819
H       1.772068    0.057915   -0.156835
H       0.965969    1.465655   -0.843000
H       1.080741    1.311413    0.934682
H      -1.698274   -0.987935   -1.327237
H      -0.145053   -0.537339   -2.089320
H      -0.541573   -2.703610    0.029276
H      -0.612730   -4.267160   -1.886873
H      -0.337684   -2.922637   -3.020438
H       1.823777   -4.339408   -1.359248
H       2.114371   -3.109207   -2.617447
