11

O       0.099658    1.289831    0.101890
C       0.071646   -0.042275    0.052090
N       0.070833   -0.607710   -1.159553
C       0.042707   -1.924914   -1.159914
F       0.041278   -2.506512   -2.343901
C       0.015288   -2.712931   -0.019073
C       0.020135   -1.974825    1.158412
F      -0.004316   -2.617796    2.309739
N       0.047510   -0.661454    1.229073
H       0.114860    1.603683   -0.812594
H      -0.007527   -3.791582   -0.043574
