21

C      -0.074669    1.445508    0.113321
C      -0.046270   -0.058462   -0.037657
C       0.848770   -0.619057   -1.168522
C       1.102838   -2.069898   -0.669640
C       0.410034   -2.041201    0.710398
O       0.551514   -0.673506    1.131692
C      -1.120542   -2.139520    0.569379
O      -1.741101   -2.262291    1.836317
C      -1.424026   -0.771769   -0.113460
H       0.937865    1.841549    0.234990
H      -0.520962    1.909040   -0.772065
H      -0.667188    1.736521    0.985754
H       0.364953   -0.573466   -2.147383
H       1.780981   -0.050938   -1.224702
H       0.678072   -2.833660   -1.327507
H       2.169377   -2.278202   -0.564119
H       0.822378   -2.709201    1.466788
H      -1.450067   -3.002124   -0.014872
H      -1.363961   -1.561733    2.383606
H      -2.186607   -0.244873    0.466153
H      -1.788485   -0.872604   -1.139029
