12

O       0.143240    1.399061   -0.099300
C       0.075461    0.016020   -0.069085
C       0.052302   -0.688340    1.333093
N      -1.358858   -0.097234    1.460443
C      -1.342933   -0.648482    0.027658
C      -0.641941   -1.875508    0.639911
O      -0.731823   -3.062214    0.699742
H      -0.479026    1.708994    0.575236
H       0.761499   -0.385626   -0.814580
H       0.774568   -0.636987    2.144973
H      -1.949533   -0.662760    2.074483
H      -2.198749   -0.552043   -0.636973
