20

C       0.196252    1.375084    0.500567
N       0.021080    0.079734   -0.163702
C      -1.286214   -0.462418   -0.103527
C      -1.791843   -1.225674    0.936240
C      -1.153740   -1.673831    2.206488
N      -3.064061   -1.530963    0.572121
N      -3.416129   -1.041264   -0.636300
C      -2.340749   -0.377700   -1.054383
C      -2.329835    0.307310   -2.384479
H       1.231356    1.706977    0.373311
H      -0.473756    2.166558    0.127555
H       0.010763    1.262234    1.572885
H       0.327446    0.146925   -1.127023
H      -1.451285   -1.061301    3.066643
H      -1.404193   -2.714259    2.440832
H      -0.068225   -1.598064    2.101465
H      -3.734087   -2.074073    1.088962
H      -2.060009    1.365629   -2.293712
H      -1.611856   -0.151902   -3.075335
H      -3.320313    0.242922   -2.839865
