19

C      -0.117460    1.577092   -0.032068
C      -0.002781    0.058749   -0.008391
O      -1.292047   -0.508886   -0.155204
C       1.170438   -0.655440   -0.784616
C       2.122154   -0.186888    0.364757
C       0.825321   -0.661288    1.100884
C       0.880504   -1.857441    0.130712
C       0.251597   -3.154129    0.013113
O       1.674331   -3.009781    0.273139
H       0.830532    2.096226    0.109355
H      -0.525092    1.904306   -0.997410
H      -0.811031    1.903799    0.748731
H      -1.735801   -0.058353   -0.880880
H       1.365038   -0.654639   -1.857771
H       2.999313   -0.813264    0.525232
H       2.376323    0.870653    0.416358
H       0.624309   -0.669536    2.172113
H      -0.330534   -3.556678    0.840189
H       0.001365   -3.555107   -0.967804
