19

C       0.059669    1.426146   -0.157541
C      -0.030466   -0.068952    0.056150
O       0.311678   -0.781625   -1.202726
C      -0.989276   -1.357627   -1.237350
C      -1.278596   -2.166785    0.002033
C      -0.199417   -2.839035    0.850015
C       0.710202   -1.865986    1.555179
C       0.799428   -0.585660    1.201118
C      -1.453331   -0.663692    0.008978
H       1.094546    1.716475   -0.365605
H      -0.563090    1.733924   -1.001297
H      -0.273942    1.960770    0.739142
H      -1.446637   -1.520679   -2.206621
H      -2.218710   -2.709814   -0.061047
H      -0.674595   -3.487258    1.597493
H       0.404222   -3.508901    0.221543
H       1.307114   -2.256582    2.375336
H       1.467233    0.100719    1.713656
H      -2.362562   -0.136609    0.266622
