15

N       0.072651    1.381795    0.117618
C      -0.037018    0.008845    0.049300
C      -1.196102   -0.684696    0.002181
N      -2.435520   -0.001917   -0.060483
C      -1.150868   -2.135174   -0.064942
N      -2.231791   -2.814686   -0.178515
N       0.134376   -2.729752   -0.015300
C       1.152604   -1.980109    0.064400
O       1.176153   -0.622461    0.101053
H       0.939787    1.739257   -0.261422
H      -0.744772    1.834421   -0.276233
H      -2.665512    0.441590    0.824671
H      -3.153693   -0.697436   -0.250926
H      -2.007098   -3.808317   -0.228696
H       2.163484   -2.372361    0.117655
