21

C      -0.404314    1.211636    0.114721
O       0.459074    0.145371   -0.229306
C       0.878964   -0.575665    0.890177
C       0.117403   -1.632004    1.652209
C      -0.623021   -2.701766    0.811739
C      -0.574822   -2.502731   -0.682270
C       0.645299   -3.007722    0.041251
C       1.431676   -1.958186    0.881872
C       2.798157   -2.302469    1.403590
H       0.086497    1.921126    0.798952
H      -0.659449    1.732537   -0.810860
H      -1.324677    0.849279    0.593833
H       1.435396    0.059063    1.589859
H      -0.024455   -1.551743    2.724368
H      -1.302509   -3.405767    1.274361
H      -1.096433   -3.281060   -1.233917
H      -0.598241   -1.524669   -1.138220
H       1.081395   -3.977108   -0.165572
H       3.536861   -2.314277    0.591897
H       3.135222   -1.578329    2.151893
H       2.805392   -3.295163    1.869105
