17

O      -0.140216    1.328190    0.231839
N       0.007782   -0.063334    0.223994
C      -1.093711   -0.640181   -0.034523
C      -2.457221   -0.032939   -0.275888
C      -3.373655   -1.242942   -0.552825
C      -2.691104   -2.415981    0.176479
C      -1.176519   -2.166850   -0.059871
C      -0.747380   -2.696999   -1.358777
N      -0.429019   -3.118637   -2.386988
H       0.752772    1.629871    0.431963
H      -2.762445    0.518073    0.622264
H      -2.429758    0.698715   -1.088072
H      -4.400874   -1.083818   -0.217905
H      -3.406726   -1.449983   -1.627488
H      -2.880354   -2.358487    1.253694
H      -3.014321   -3.397798   -0.173519
H      -0.543370   -2.608995    0.713288
