20

C       0.162233    1.328882   -0.069049
N      -0.079320   -0.096357   -0.108791
C      -1.324585   -0.627692    0.015299
O      -2.352945   -0.004997    0.168990
O      -1.250841   -1.983035   -0.058936
C      -2.506820   -2.665566    0.059092
C      -2.225788   -4.155272   -0.050566
C      -3.496621   -4.988444    0.061322
O      -3.125401   -6.353030   -0.052102
H       0.822375    1.602576    0.762164
H       0.610280    1.687746   -1.002902
H      -0.801750    1.819494    0.070449
H       0.685010   -0.738530   -0.231842
H      -2.969861   -2.408207    1.018094
H      -3.182497   -2.319416   -0.730769
H      -1.740990   -4.371040   -1.008709
H      -1.529213   -4.459765    0.737910
H      -3.991902   -4.788016    1.025617
H      -4.204632   -4.699710   -0.732823
H      -3.921659   -6.887597    0.016704
