15

O       0.001013    0.067365    0.024604
C      -0.017778    1.260316    0.078358
C      -1.080757    2.307512    0.032354
C      -0.476302    3.572152    0.665601
C       0.902940    3.207329    1.216250
C       1.085477    2.360297   -0.088225
C       2.364252    2.072748   -0.651470
C       3.441163    1.823421   -1.125619
C      -0.098707    3.219291   -0.731303
H      -2.143397    2.192974   -0.127463
H      -1.140105    4.359992    0.996910
H       1.572805    4.069806    1.221423
H       0.972081    2.666395    2.165595
H       4.390212    1.594529   -1.543285
H      -0.216832    3.672774   -1.702696
