18

O      -0.237064    1.407672    0.524243
C      -0.015396    0.092966    0.019943
C       0.735701   -0.796780    1.028303
C      -0.419034   -1.312950    1.890457
O      -1.462038   -1.571738    0.958276
C      -1.364889   -0.615397   -0.081289
C      -2.607238    0.111084   -0.499518
C      -2.017786   -0.977026   -1.380188
H       0.618415    1.845531    0.582802
H       0.490314    0.139007   -0.953318
H       1.218414   -1.630417    0.507545
H       1.496254   -0.243768    1.586288
H      -0.202410   -2.243720    2.420699
H      -0.725326   -0.549636    2.621237
H      -3.512240   -0.129194    0.046698
H      -2.510974    1.146434   -0.804326
H      -1.529373   -0.692467   -2.306571
H      -2.534667   -1.929862   -1.409963
