18

C      -0.029457    1.535759    0.044424
C       0.123659    0.047828    0.000296
N      -0.808591   -0.868470    0.701489
C       0.641384   -0.935862    0.992329
C       1.254381   -1.824428   -0.094865
C       0.805572   -3.200370   -0.189602
N       0.442500   -4.291442   -0.314311
C       0.651799   -0.779767   -1.181994
N      -0.336265   -1.156876   -2.145539
H       0.888044    2.035539   -0.283266
H      -0.841511    1.861228   -0.614536
H      -0.256619    1.879272    1.059393
H      -1.250636   -0.344281    1.455373
H       1.022894   -0.785186    1.994387
H       2.346498   -1.789101   -0.093037
H       1.490678   -0.286695   -1.680303
H       0.033816   -1.803341   -2.834154
H      -1.111763   -1.613277   -1.673890
