19

C      -0.199926    1.578862   -0.049780
C      -0.112664    0.039652   -0.042640
C       0.799038   -0.422051    1.136484
O       0.296057   -0.048129    2.398886
C      -1.438654   -0.553884    0.155871
C      -2.510992   -1.059368    0.362366
C       0.484950   -0.531764   -1.331955
C       0.472156    0.155867   -2.626260
O       1.662946    0.098127   -1.831759
H       0.754872    1.995905   -0.381029
H      -0.994950    1.933698   -0.709482
H      -0.407165    1.928743    0.962926
H       0.947508   -1.510335    1.066182
H       1.773992    0.061973    1.029008
H      -0.574998   -0.454069    2.488798
H      -3.467256   -1.494553    0.519743
H       0.527145   -1.622150   -1.343579
H       0.495862   -0.432032   -3.542237
H       0.022755    1.141518   -2.717285
