20

C      -0.094974    1.452781   -0.147907
C       1.292421    0.947044    0.116419
C       0.131100   -0.032180    0.081622
C      -0.351770   -0.715465    1.295314
C      -0.752203   -1.993961    1.364291
C      -1.091216   -2.383636    2.760090
N       0.080572   -2.281250    3.685730
C      -0.886267   -1.166307    3.588414
C      -0.439822   -0.041668    2.661571
H      -0.587397    2.017687    0.635560
H      -0.352189    1.770990   -1.152017
H       1.999018    0.910021   -0.705208
H       1.742108    1.166660    1.077918
H       0.082816   -0.649723   -0.810488
H      -0.779944   -2.682683    0.527908
H      -1.855438   -3.123208    2.974643
H      -0.134023   -2.805402    4.533561
H      -1.507389   -0.938740    4.448003
H       0.520644    0.380539    2.979370
H      -1.168007    0.780241    2.657620
