21

C      -0.107657    1.626103   -0.001677
C       0.035065    0.114602    0.021177
C       1.193553   -0.627681   -0.754853
C       2.436633   -0.035633   -0.073539
C       2.115179   -0.046289    1.223735
C       0.700126   -0.644134    1.236611
C       0.899525   -1.801670    0.219519
C       0.046777   -3.006518   -0.001681
C       1.521994   -3.144334    0.362694
H       0.833212    2.128532    0.235410
H      -0.437224    1.966498   -0.989854
H      -0.861470    1.952341    0.723798
H      -0.924961   -0.354797   -0.220563
H       1.186380   -0.748539   -1.838702
H       3.342868    0.292901   -0.561920
H       2.687299    0.271161    2.083745
H       0.188254   -0.781828    2.189719
H      -0.688523   -3.271915    0.752142
H      -0.250532   -3.257389   -1.015596
H       2.204507   -3.485823   -0.409247
H       1.766519   -3.500367    1.358575
