18

O       0.029954   -0.065913    0.015077
C       0.004611    1.152529    0.015740
C      -1.351171    1.889350    0.132658
C      -1.285351    3.291797    0.775843
C      -0.241008    4.075531   -0.006178
C       0.643489    5.241294    0.547988
N       1.818229    4.448072    0.096826
C       1.056091    3.308699   -0.060225
C       1.215507    1.973172   -0.050486
H      -1.760793    1.977128   -0.883733
H      -2.021968    1.222793    0.680084
H      -2.268228    3.774548    0.760804
H      -0.978309    3.204145    1.825010
H      -0.612664    4.318137   -1.007520
H       0.550325    6.220950    0.072931
H       0.584414    5.346391    1.637356
H       2.728139    4.463329    0.537909
H       2.176505    1.474488    0.005590
