14

N      -0.057040    1.346555   -0.055992
C       0.072640   -0.008595    0.042732
O       1.154737   -0.555595    0.132446
C      -1.248649   -0.775954    0.027821
C      -1.019697   -2.294556   -0.034007
C      -2.269139   -3.043907   -0.002807
C      -3.313412   -3.638768    0.024245
H       0.773623    1.911302    0.010635
H      -0.952380    1.802193   -0.069578
H      -1.817201   -0.519735    0.930015
H      -1.858417   -0.446474   -0.821104
H      -0.455561   -2.538295   -0.940976
H      -0.374152   -2.590685    0.799206
H      -4.225193   -4.181959    0.048013
