19

C      -0.041085    1.773487    0.451571
N       0.110315    0.342737    0.185418
C      -0.960158   -0.603813    0.715516
C       0.085457   -1.729928    0.537071
C       0.787068   -0.528677    1.243711
C      -0.446603   -0.430795    2.177373
C       2.251139   -0.409517    1.578346
N       2.987966    0.092953    0.547027
O       2.708912   -0.738004    2.654941
H       0.932263    2.257778    0.324145
H      -0.721162    2.188496   -0.299516
H      -0.425513    2.048673    1.443814
H      -1.984464   -0.567481    0.341932
H      -0.043786   -2.633353    1.132998
H       0.405040   -1.920358   -0.487744
H      -0.623694    0.522195    2.673165
H      -0.609503   -1.262087    2.865644
H       2.554954    0.247391   -0.349091
H       3.991195    0.112285    0.629918
