20

C      -0.193363    1.454647   -0.064365
O      -0.381624    0.078583   -0.324806
C       0.577347   -0.527931   -1.151818
C       0.513893   -0.024389   -2.592950
C       2.031243   -0.637638   -0.592350
C       2.026219   -2.147746   -0.938840
C       0.467994   -2.095895   -1.088141
C      -0.244036   -2.608847    0.071177
N      -0.789136   -3.054989    0.987861
H       0.814121    1.664895    0.322408
H      -0.363293    2.077673   -0.953171
H      -0.924952    1.729311    0.698342
H       0.815222    1.025286   -2.657455
H       1.186543   -0.597466   -3.238474
H      -0.505103   -0.119165   -2.980356
H       2.798329   -0.016186   -1.059217
H       2.039716   -0.474272    0.487889
H       2.506104   -2.372338   -1.893210
H       2.407507   -2.831928   -0.181479
H       0.056626   -2.561282   -1.987620
