16

O      -0.097072    1.463354   -0.075313
C      -0.055740    0.087059   -0.079879
C      -0.262899   -0.764374    1.142656
C      -1.203235   -0.955272   -0.030471
C      -2.612500   -0.803604    0.022119
C      -3.808467   -0.668931    0.043532
N      -0.527711   -1.817078   -1.037538
C      -0.448499   -0.998770   -2.262221
C       0.538720   -0.735037   -1.187612
H       0.349874    1.787903    0.712959
H       0.426152   -1.565410    1.398347
H      -0.710591   -0.246500    1.986011
H      -4.864000   -0.557435    0.068132
H      -0.105344   -1.562594   -3.124222
H      -1.236636   -0.277779   -2.460206
H       1.587251   -1.000533   -1.282948
