16

O      -0.162078   -0.085503    0.000870
C      -0.092408    1.114091    0.116229
C      -1.246725    2.166678    0.034315
C      -0.595599    3.523037    0.269912
C       0.703135    3.273681    0.434895
C       2.133597    3.620009    0.747400
C       2.596735    2.760918    1.921829
C       2.437218    2.111872    0.582467
N       1.014361    1.910448    0.306158
H      -1.734967    2.076422   -0.943174
H      -2.003978    1.916759    0.786355
H      -1.109776    4.471101    0.290719
H       2.691438    4.476261    0.398362
H       3.621537    2.946890    2.229805
H       1.910648    2.518625    2.727009
H       3.208658    1.601288    0.023527
