22

C      -0.402846    1.484684   -0.036121
C      -0.201754   -0.027316   -0.161214
C       1.019698   -0.403220   -1.011214
C       1.192860   -1.900484   -1.126523
N       0.355368   -2.603562   -2.113846
C       1.821491   -2.610378   -2.276286
C       2.376436   -1.928942   -3.513373
C       2.154197   -2.781668   -4.746039
O       3.017285   -3.118238   -5.515761
H       0.464891    1.964038    0.430980
H      -0.545611    1.947373   -1.018974
H      -1.280869    1.720947    0.572891
H      -0.096755   -0.467843    0.839404
H      -1.091210   -0.487210   -0.608274
H       0.909836    0.036078   -2.008437
H       1.927509    0.030747   -0.570181
H       1.324523   -2.397806   -0.164591
H       0.027917   -3.493808   -1.750587
H       2.337994   -3.536224   -2.024653
H       1.850924   -0.980579   -3.674874
H       3.446422   -1.724362   -3.412173
H       1.095293   -3.091618   -4.891975
