20

C      -0.556887    1.086219   -1.415123
C       0.289270   -0.087713   -0.959474
N       1.736681    0.020235   -1.250397
C       2.093524   -0.567829    0.060347
C       3.284525    0.063963    0.756127
C       0.642757   -0.232894    0.565647
N       0.569293    1.029420    1.289285
C      -0.041457   -1.329340    1.259870
N      -0.589869   -2.170979    1.834514
H      -0.151207    2.022917   -1.028437
H      -0.558167    1.137619   -2.508969
H      -1.596924    0.974817   -1.087868
H      -0.152945   -1.031793   -1.308832
H       2.053788   -0.504501   -2.058457
H       2.210199   -1.660600    0.026734
H       3.150880    1.144216    0.837856
H       3.431831   -0.363383    1.754554
H       4.194181   -0.127164    0.177217
H      -0.401826    1.292057    1.431890
H       0.979634    0.924667    2.212876
