20

C       0.202653    1.104316    0.317605
C      -0.200392   -0.277509   -0.190696
O       0.517584   -1.310143    0.494430
C      -1.711636   -0.505410   -0.108177
O      -2.049643   -1.695984   -0.782123
C      -2.894875   -2.627999   -0.120646
C      -2.113222   -3.906945    0.160285
O      -1.027097   -3.681825    1.029882
H       1.288242    1.220940    0.272294
H      -0.257036    1.896056   -0.281760
H      -0.114052    1.247810    1.358593
H       0.097422   -0.391211   -1.238601
H       0.396290   -1.176878    1.442495
H      -2.014517   -0.545194    0.949415
H      -2.233157    0.349625   -0.567404
H      -3.269180   -2.209092    0.823026
H      -3.758553   -2.840949   -0.766411
H      -2.774570   -4.637340    0.642305
H      -1.785616   -4.339283   -0.799065
H      -0.444885   -3.032737    0.602915
