15

O       0.016803    1.455301    0.249431
C       0.039378    0.079845   -0.081915
C      -1.343799   -0.515924   -0.046606
C      -1.998472   -1.012646    1.226175
C      -1.749036   -1.973207    0.098978
O      -2.822791   -2.156184   -0.819102
C      -3.027377   -0.931883   -1.368019
N      -2.265357    0.028529   -1.030173
H      -0.645208    1.860070   -0.323852
H       0.479402   -0.084443   -1.078385
H       0.683410   -0.413450    0.653473
H      -1.350308   -1.120548    2.089400
H      -3.016612   -0.707893    1.443943
H      -1.109876   -2.842924    0.178048
H      -3.847028   -0.881347   -2.074184
