20

C      -0.004345    1.565094   -0.032744
C       0.038196    0.039167    0.057097
C       0.782830   -0.623551   -1.127676
O       1.340097   -1.842490   -0.649035
C       1.541005   -1.728239    0.745472
C       1.647238   -3.070891    1.408828
C       2.297402   -0.513604    1.228474
C       0.773440   -0.543186    1.257235
H       1.006101    1.987354   -0.014194
H      -0.489893    1.895195   -0.957940
H      -0.561512    1.995592    0.805152
H      -0.990335   -0.343237    0.086673
H       0.129296   -0.858938   -1.972860
H       1.576622    0.044111   -1.496607
H       2.507278   -3.627008    1.021187
H       1.773596   -2.958165    2.489031
H       0.747336   -3.665744    1.222171
H       2.807321   -0.592151    2.182863
H       2.806231    0.117548    0.507400
H       0.268981   -0.563949    2.217226
