23

C       0.045738    1.648878   -0.087788
C       0.033001    0.131138    0.002676
C       1.000746   -0.717750   -0.915033
C       1.094004   -1.736969    0.261653
C       2.244253   -2.396964    1.068052
C       2.090911   -1.533024    2.358573
C       2.102418   -0.115536    1.732523
C       0.716811   -0.580771    1.195435
C       0.538213   -1.299143    2.557162
H       1.056696    2.046358    0.051715
H      -0.313107    1.988953   -1.065606
H      -0.598618    2.097809    0.676521
H      -0.988853   -0.245781   -0.127359
H       0.601143   -1.080311   -1.865239
H       1.935595   -0.183652   -1.106402
H       0.252382   -2.431819    0.163700
H       2.078240   -3.465711    1.232248
H       3.242447   -2.276460    0.634979
H       2.723579   -1.784494    3.211227
H       2.006778    0.683162    2.472972
H       2.902467    0.123687    1.026169
H      -0.126130   -2.168324    2.582918
H       0.350174   -0.650335    3.416938
