13

O       0.057618    1.302947    0.510263
C      -0.024330    0.008408   -0.074226
C      -1.445190   -0.453642    0.002827
N      -1.730844   -1.729052    0.255855
N      -3.075951   -1.785091    0.212424
C      -3.650140   -0.584984   -0.047011
C      -2.617215    0.313631   -0.193957
H       0.942331    1.642683    0.346986
H       0.300207    0.039733   -1.127509
H       0.612964   -0.723224    0.442402
H      -3.531910   -2.663856    0.387614
H      -4.721214   -0.468878   -0.100220
H      -2.684558    1.368957   -0.396850
