21

C       0.386040    1.444475    0.070908
C       0.048604   -0.008648   -0.032349
C       0.036301   -0.777801   -1.125666
C      -0.333104   -2.217491   -0.857825
C      -0.433446   -2.284176    0.682054
C      -1.594871   -3.110487    1.211297
C       0.909115   -2.482649    1.434665
O       0.858596   -1.156980    2.005066
C      -0.297868   -0.822680    1.189281
H       1.225206    1.592900    0.760973
H       0.657892    1.870111   -0.898859
H      -0.456958    2.020728    0.473393
H       0.265646   -0.419805   -2.125340
H      -1.285169   -2.486422   -1.336736
H       0.412724   -2.920112   -1.253556
H      -1.494695   -4.162800    0.920501
H      -1.646008   -3.069378    2.304438
H      -2.549677   -2.746828    0.815248
H       0.913684   -3.256654    2.211834
H       1.785030   -2.619595    0.786582
H      -1.092690   -0.387400    1.809156
