20

C       0.041031    1.448765   -0.133726
C       1.302871    0.666338   -0.033520
C       1.980062    0.352325    1.309672
C       1.349085   -1.029070    1.604247
C      -0.113780   -0.646899    1.320346
C      -0.597717    0.249369    2.468728
O       0.209467    1.400864    2.693021
C       1.611521    1.277531    2.478396
N      -0.011453   -0.024280   -0.033826
H      -0.272568    2.063228    0.698777
H      -0.257206    1.816530   -1.113123
H       1.910848    0.523569   -0.924638
H       3.069089    0.328310    1.215434
H       1.695787   -1.787408    0.897035
H       1.523565   -1.389448    2.623340
H      -0.789082   -1.505092    1.252999
H      -1.604025    0.633433    2.270128
H      -0.650617   -0.368341    3.380744
H       2.104181    0.900050    3.389958
H       1.967884    2.298378    2.305532
