16

O      -0.233954    1.424451   -0.116327
C       0.009614    0.037603   -0.080971
C      -1.275268   -0.733325    0.230375
O      -2.298424   -0.359583   -0.693986
C      -1.070724   -2.245048    0.258021
O      -2.236451   -2.909346    0.741243
C      -3.152424   -3.312303   -0.164228
O      -4.198996   -3.789917    0.148182
H      -1.088886    1.533535   -0.552581
H       0.426881   -0.325275   -1.039993
H       0.764303   -0.146519    0.691447
H      -1.655632   -0.413141    1.205896
H      -2.010037   -0.611198   -1.580627
H      -0.805760   -2.615859   -0.743226
H      -0.260396   -2.512627    0.941755
H      -2.812342   -3.174614   -1.208723
