21

C       0.294444    1.067047   -0.409910
C       0.370233   -0.422137   -0.060413
C       0.767875   -0.712940    1.399180
C      -0.179492   -0.099577    2.452223
C      -1.646319   -0.540751    2.373427
C       0.932633   -2.244503    1.578056
C       1.439598   -2.623333    2.895093
N       1.843915   -2.905281    3.940680
H       1.236919    1.576555   -0.180247
H       0.095022    1.203747   -1.477009
H      -0.501566    1.577241    0.140510
H      -0.591242   -0.902062   -0.284127
H       1.104030   -0.904433   -0.719031
H       1.757942   -0.268131    1.566643
H       0.214617   -0.337894    3.446793
H      -0.128032    0.991242    2.366010
H      -2.229750   -0.054419    3.160744
H      -2.106004   -0.276612    1.415711
H      -1.761129   -1.620951    2.511540
H      -0.023359   -2.755258    1.414986
H       1.624151   -2.632812    0.821674
