21

C       0.472607    1.108643    1.083762
C       0.095715   -0.067596    0.211601
C      -1.149172   -0.844852    0.610595
C      -2.455544   -0.111730    0.342482
C      -3.763399   -0.752670    0.859849
C      -3.958336    0.583847    1.601743
O      -2.656288    1.049848    1.189913
C       0.539656   -0.117052   -1.191027
O       1.201385   -0.894470   -0.191040
H       1.370330    1.599764    0.700212
H      -0.347630    1.828828    1.135932
H       0.679039    0.768090    2.104611
H      -1.161358   -1.785703    0.047533
H      -1.098067   -1.102564    1.676121
H      -2.506301    0.182039   -0.716247
H      -4.510003   -1.007145    0.106532
H      -3.602824   -1.612581    1.513806
H      -4.761282    1.219362    1.206535
H      -4.050364    0.535500    2.692623
H      -0.030623   -0.687259   -1.924724
H       1.118868    0.708535   -1.603036
