22

C       0.106424    1.559355   -0.052010
C      -0.003851    0.061368    0.051840
C      -1.148413   -0.639871   -0.003771
C      -2.534965   -0.065035   -0.142077
C      -1.108504   -2.132287    0.065003
N      -0.207090   -2.849622   -0.884085
C       0.112141   -2.826207    0.550642
C       1.277119   -1.962073    0.970754
C       1.332034   -0.650623    0.169058
H       0.776402    1.836148   -0.877037
H      -0.846671    2.062161   -0.219859
H       0.553804    1.979876    0.858591
H      -2.558645    1.024805   -0.119606
H      -3.000295   -0.390299   -1.082121
H      -3.186054   -0.425381    0.665411
H      -2.065121   -2.608877    0.267697
H      -0.621763   -3.745326   -1.129761
H      -0.027203   -3.745451    1.116775
H       1.161677   -1.738050    2.039363
H       2.222612   -2.505766    0.860060
H       1.706518   -0.865970   -0.839141
H       2.065441    0.021622    0.630141
