19

O      -0.062164    1.369382   -0.059967
C       0.017987   -0.024252   -0.051062
C       1.002123   -0.707377   -0.994507
C       0.452387   -2.116984   -1.146647
C       0.079292   -2.859126    0.118086
C       0.299303   -2.131380    1.437750
C      -0.335081   -0.764678    1.219447
C      -1.262265   -0.823545    0.005291
C      -0.996625   -2.146504   -0.683578
H       0.664901    1.713683    0.470245
H       0.996001   -0.180228   -1.955423
H       2.031815   -0.691134   -0.613288
H       0.767298   -2.706775   -2.000310
H       0.149151   -3.941364    0.101549
H      -0.208360   -2.659826    2.253619
H       1.361570   -2.065836    1.706156
H      -0.611682   -0.152884    2.071805
H      -2.232354   -0.345457   -0.005958
H      -1.776628   -2.669830   -1.220333
