17

C      -0.049368    1.391348    0.079128
N       0.045812   -0.046481   -0.013143
C       0.100062   -0.805027   -1.146143
C       0.063010   -2.124473   -0.740017
N       0.033741   -3.291415   -1.526073
C      -0.021257   -2.063390    0.674408
C      -0.082041   -3.207252    1.634780
N      -0.033098   -0.797097    1.096819
H       0.600308    1.857443   -0.666878
H      -1.076622    1.742076   -0.077505
H       0.276530    1.686471    1.076882
H       0.161831   -0.357687   -2.125802
H       0.427862   -3.150956   -2.447556
H       0.519529   -4.061301   -1.082228
H       0.816064   -3.836961    1.582265
H      -0.166431   -2.829414    2.655863
H      -0.942457   -3.856376    1.433548
