16

N       0.001560    1.382700    0.239551
C      -0.068803    0.016204    0.045023
C      -1.136860   -0.827079   -0.094743
C      -0.631820   -2.173529   -0.131950
C       0.721909   -2.138878   -0.030013
N       1.733811   -3.120250   -0.063626
N       1.096980   -0.767386    0.067091
C       2.398174   -0.311115    0.022222
O       2.723948    0.858360    0.019673
H       0.905774    1.778472    0.014228
H      -0.780912    1.889224   -0.146377
H      -2.172213   -0.526594   -0.133250
H      -1.225747   -3.071397   -0.219743
H       1.885563   -3.565141    0.836598
H       1.528215   -3.843736   -0.741238
H       3.112309   -1.145322   -0.021767
