14

N       0.041736    1.300196   -0.061308
C      -0.040922   -0.044192   -0.029564
N      -1.192396   -0.646685   -0.021746
C      -1.091752   -2.018860   -0.020020
N      -2.277775   -2.661199   -0.030631
N       0.004292   -2.738414   -0.015072
C       1.193454   -2.101244   -0.018540
N       2.338375   -2.634323   -0.013877
O       1.148902   -0.636946   -0.026941
H       0.932890    1.744045    0.073616
H      -0.806133    1.827782    0.051404
H      -3.126975   -2.130520    0.033521
H      -2.287861   -3.663812    0.029841
H       3.066175   -1.923287   -0.018516
