20

C       1.530117   -2.264344    1.236627
C       0.426650   -1.681451    0.351313
O      -0.097247   -0.472926    0.886316
C       0.891442   -1.464844   -1.093550
C       0.781946   -2.592406   -2.081429
N      -0.066246   -1.425917   -2.212531
C      -1.494356   -1.554775   -1.950843
C       1.967072   -0.503257   -1.204900
C       2.854129    0.309367   -1.236084
H       1.843271   -3.250669    0.879405
H       2.408655   -1.611588    1.242832
H       1.162408   -2.362349    2.261386
H      -0.418954   -2.374444    0.341745
H       0.591881    0.198107    0.801251
H       1.545722   -2.727999   -2.842164
H       0.335128   -3.515389   -1.708240
H      -1.768798   -2.413181   -1.319424
H      -1.853922   -0.643030   -1.467682
H      -2.006508   -1.670175   -2.911081
H       3.640426    1.020853   -1.296832
