19

C      -0.116590    1.604794   -0.038681
C      -0.011319    0.069190   -0.010881
C       0.731867   -0.469050   -1.209992
N       0.010316   -0.637391   -2.322105
C       0.644335   -1.085723   -3.406135
C       2.002298   -1.372394   -3.386752
N       2.736086   -1.209240   -2.284695
C       2.114502   -0.756382   -1.191327
C       2.961814   -0.579641    0.042946
H       0.871704    2.075847   -0.012707
H      -0.621411    1.932602   -0.951794
H      -0.687034    1.970202    0.820399
H       0.470762   -0.252923    0.916717
H      -1.018146   -0.358711   -0.025165
H       0.051743   -1.221093   -4.307405
H       2.513938   -1.741595   -4.271980
H       2.897180    0.439063    0.439404
H       2.648539   -1.257044    0.845847
H       4.001711   -0.795942   -0.205517
