21

C      -0.007942    1.606900    0.015786
C       0.016749    0.076440   -0.015092
C      -1.387319   -0.535598    0.011225
C      -1.407942   -2.080896   -0.000202
C      -2.838709   -2.648238    0.151486
C      -2.895881   -4.173722    0.249483
C      -0.776091   -2.598247   -1.220216
N      -0.292714   -2.999654   -2.191008
H       1.005342    2.019021   -0.000240
H      -0.545180    2.011315   -0.849048
H      -0.505332    1.979426    0.918298
H       0.545463   -0.266060   -0.912321
H       0.590791   -0.299879    0.842102
H      -1.916013   -0.208781    0.915313
H      -1.970336   -0.167270   -0.842085
H      -0.803967   -2.440936    0.844749
H      -3.271008   -2.198324    1.052714
H      -3.444719   -2.301898   -0.693714
H      -3.928480   -4.515061    0.366083
H      -2.484845   -4.645257   -0.648156
H      -2.325134   -4.537649    1.110895
