16

O       0.039893    1.372270    0.054836
C      -0.021772   -0.019640   -0.027887
C      -1.348073   -0.678781    0.037822
C      -2.584874    0.195502   -0.197906
C      -2.379185    0.883343   -1.561433
C      -1.282325    0.085725   -2.276836
O      -1.067998    0.090545   -3.464481
C      -0.548304   -0.743861   -1.268660
H       0.793941    1.673053   -0.463975
H       0.802085   -0.536892    0.463398
H      -1.454946   -1.555789    0.666329
H      -3.467957   -0.450087   -0.227024
H      -2.730240    0.911423    0.615521
H      -3.278184    0.913952   -2.181013
H      -2.019128    1.910028   -1.446173
H      -0.016586   -1.618412   -1.622481
