16

O       0.026508    0.048531   -0.698715
C      -0.033147    1.095291   -0.118590
C      -1.344808    1.847475    0.136313
N      -1.289006    2.868912    1.174059
C      -0.708072    2.414927    2.485071
C       0.519023    3.288034    2.257042
C       1.092560    2.972844    0.900806
O       1.107799    1.660077    0.366423
C      -0.151882    3.778758    0.965576
H      -1.650221    2.315618   -0.807134
H      -2.102257    1.095237    0.373112
H      -1.337546    2.739339    3.317323
H      -0.528437    1.336346    2.568310
H       1.068510    3.843204    3.005534
H       2.014912    3.483899    0.647383
H      -0.288147    4.765599    0.536825
