20

O       0.025321   -0.112944    0.033627
C       0.032219    1.095979    0.036578
C      -1.255282    1.913070    0.019743
C      -1.433309    2.859925   -1.188524
C      -0.314371    3.889908   -1.383901
N       0.828375    3.301105   -2.083343
C       2.172555    3.699170   -1.679452
C       1.666432    2.330407   -1.377400
C       1.341582    1.887358    0.042317
H      -2.088218    1.207165    0.069558
H      -1.272419    2.515960    0.939171
H      -1.528041    2.276022   -2.110754
H      -2.381396    3.390968   -1.051581
H      -0.678076    4.710122   -2.012831
H      -0.044599    4.339381   -0.412397
H       2.884721    3.867549   -2.483234
H       2.270033    4.383770   -0.836809
H       1.987773    1.508547   -2.014920
H       1.260252    2.750126    0.709973
H       2.136041    1.234393    0.412587
