20

C      -1.121229    0.897416    0.112892
C       0.215399    0.150799    0.071585
C       0.794133    0.137803   -1.331591
C       1.954543   -0.446329   -1.634081
C       2.559082   -0.452171   -3.009398
C       2.729547   -1.116714   -0.522774
O       3.225029   -0.187850    0.459923
C       2.345478    0.578152    1.154772
N       1.100034    0.758823    1.075877
H      -0.979299    1.945239   -0.170856
H      -1.841382    0.443959   -0.576357
H      -1.535676    0.874887    1.123229
H       0.017057   -0.888202    0.380594
H       0.228606    0.653049   -2.106049
H       3.537730    0.044912   -3.013013
H       2.728215   -1.476517   -3.366415
H       1.915245    0.055915   -3.731919
H       2.121678   -1.876341   -0.014652
H       3.628553   -1.607869   -0.901194
H       2.909711    1.119232    1.915859
