18

C      -0.615206    1.386035    0.008538
C      -0.012398   -0.001365   -0.046336
O       1.219872   -0.037344   -0.831677
C       1.977581   -0.589882    0.258071
C       3.122601    0.242900    0.643936
N       4.019718    0.886770    0.985058
C       0.748074   -0.529470    1.173187
C       0.681719   -0.087621    2.600207
C       0.330518   -1.508747    2.222483
H       0.092175    2.103010    0.433788
H      -0.884654    1.716413   -0.999223
H      -1.525762    1.383393    0.617810
H      -0.732248   -0.721837   -0.457477
H       2.338856   -1.601733    0.031323
H       1.619585    0.094077    3.114985
H      -0.122243    0.582124    2.887106
H      -0.713564   -1.804788    2.248993
H       1.025003   -2.298599    2.490471
