18

O       0.088092    1.403188    0.018362
C       0.027475   -0.012250   -0.005525
C       0.815063   -0.528463    1.201926
O       0.957363   -1.955530    1.297366
C      -0.134018   -2.679345    1.665221
N      -1.292337   -2.711871    1.161558
C      -1.615637   -1.987027   -0.066644
C      -1.436463   -0.468474   -0.027850
O      -2.138390    0.135410    1.060399
H      -0.615614    1.679468    0.622130
H       0.518826   -0.344190   -0.927908
H       1.832839   -0.139211    1.152314
H       0.350165   -0.151305    2.122053
H       0.100172   -3.345556    2.497742
H      -1.010764   -2.384163   -0.893879
H      -2.662519   -2.203462   -0.297539
H      -1.886695   -0.050701   -0.936217
H      -2.121477   -0.482496    1.800697
