18

O       0.761218    0.223385   -1.058051
C       0.141736   -0.287620    0.112659
C      -1.390287   -0.399533   -0.017208
C      -2.355878    0.611864    0.660282
O      -1.780419    1.897988    0.782004
C      -1.459766    2.334725   -0.551587
C      -2.209170    1.384503   -1.469204
C      -3.140056    0.578062   -0.671061
N      -1.979946   -0.094705   -1.377530
H       0.325043   -0.192114   -1.811213
H       0.560173   -1.271952    0.368857
H       0.393299    0.403309    0.923635
H      -1.715738   -1.417857    0.219127
H      -2.828817    0.343433    1.604064
H      -1.814314    3.364352   -0.680397
H      -0.379186    2.298338   -0.718681
H      -2.454874    1.698091   -2.477190
H      -4.179337    0.351828   -0.871192
