17

N      -0.073924    1.265549   -0.285337
C      -0.040966    0.041420    0.034022
O       1.122369   -0.575605    0.407915
C       1.107489   -1.972362    0.762477
C      -0.280931   -2.587934    0.662319
C      -0.918851   -2.169305   -0.688411
C      -1.264749   -0.829227    0.029715
C      -1.298551   -1.645763    1.357607
H       0.862183    1.671161   -0.215381
H       1.810343   -2.480802    0.091345
H       1.496001   -2.047410    1.785392
H      -0.247373   -3.644447    0.938890
H      -0.280590   -2.129390   -1.575217
H      -1.821186   -2.743687   -0.909248
H      -2.131006   -0.248679   -0.279598
H      -2.268489   -2.126935    1.501082
H      -0.996061   -1.142877    2.280103
