21

C      -0.137966    1.535818   -0.306223
C      -0.000669    0.036478   -0.077058
C       1.070680   -0.684256   -0.911770
O       2.343527   -0.154410   -0.517098
C       1.754547   -1.185875    0.286569
C       0.734804   -0.525093    1.224799
C       1.282955    0.409617    2.298188
C       0.218311    0.927494    3.258338
O       0.865175    1.743086    4.223472
H       0.837333    2.026882   -0.265178
H      -0.570998    1.731750   -1.293712
H      -0.791637    2.002715    0.437085
H      -0.971363   -0.457998   -0.185460
H       0.998544   -1.098791   -1.911205
H       2.343810   -2.082644    0.444398
H       0.103298   -1.294895    1.684106
H       2.034808   -0.127513    2.890736
H       1.799853    1.257528    1.839802
H      -0.548643    1.495665    2.708667
H      -0.292841    0.074570    3.736450
H       0.197331    2.088149    4.822953
