21

C       0.041583    1.538061    0.129444
C       0.010594    0.015876   -0.032647
C      -1.410513   -0.554325   -0.022068
C      -1.451485   -2.077790   -0.181125
C      -2.877084   -2.600082   -0.346968
O      -3.716166   -2.003572   -1.000191
N      -3.130187   -3.790474    0.273651
C      -4.411427   -4.462148    0.185156
H       1.066524    1.921713    0.113254
H      -0.513048    2.031464   -0.676149
H      -0.413944    1.844220    1.077776
H       0.505248   -0.263238   -0.972801
H       0.600846   -0.449561    0.768544
H      -1.912195   -0.273912    0.913578
H      -2.005272   -0.113517   -0.828629
H      -0.899076   -2.364641   -1.086526
H      -0.947526   -2.571233    0.659273
H      -2.390245   -4.225869    0.797880
H      -4.859320   -4.601162    1.175584
H      -5.065237   -3.829308   -0.416046
H      -4.319456   -5.442099   -0.297253
