19

O       0.188483    0.034385   -0.239130
C       0.023307    1.216356   -0.105374
C      -1.189643    2.158766    0.119266
C      -0.137742    3.304207    0.188699
C       0.021444    4.009695    1.527987
N       1.261729    4.777362    1.538808
C       1.168381    6.172785    1.114039
C       1.371004    5.824997    2.547069
N       0.883433    2.288296   -0.088061
H      -1.890677    2.205066   -0.715330
H      -1.733606    1.968022    1.046973
H      -0.225201    4.043530   -0.616300
H      -0.867841    4.638535    1.720030
H       0.078003    3.260291    2.326852
H       1.993642    6.542300    0.512647
H       0.189119    6.555280    0.829518
H       0.527029    5.975064    3.218580
H       2.346962    5.935304    3.010571
H       1.889916    2.346998   -0.041389
