20

C      -0.116840    1.635622   -0.502794
C       0.089866    0.239895    0.081940
O       0.803897    0.274796    1.316659
C      -1.232468   -0.480706    0.263585
N      -1.788863   -1.162211   -0.897072
C      -1.348613   -1.979732    0.247143
C      -0.140252   -2.859437    0.062457
C       0.042034   -3.927099    1.125170
O       0.642319   -2.709614   -0.847082
H       0.844577    2.141939   -0.622747
H      -0.606280    1.573351   -1.479211
H      -0.748352    2.249647    0.153627
H       0.707129   -0.353655   -0.595388
H       0.359910    0.902336    1.897804
H      -1.925457    0.023872    0.941312
H      -2.803524   -1.103670   -0.907872
H      -2.113593   -2.392628    0.902159
H      -0.810884   -4.615971    1.126868
H       0.962145   -4.481227    0.938463
H       0.083092   -3.464216    2.117919
