19

O      -0.023364    1.486776   -0.160778
C      -0.047990    0.134447    0.195994
C      -1.423934   -0.460416   -0.046737
O      -2.343568    0.192417   -0.484758
O      -1.484784   -1.754496    0.277795
C      -2.754269   -2.403294    0.095010
C      -3.111211   -2.918662   -1.315735
C      -3.636420   -4.215564   -0.635409
C      -2.799178   -3.845659    0.623559
H      -0.919167    1.688772   -0.470295
H       0.685401   -0.447751   -0.381980
H       0.204861   -0.007368    1.257640
H      -3.536547   -1.763037    0.507635
H      -3.798713   -2.317931   -1.912274
H      -2.202397   -3.110135   -1.893299
H      -4.710808   -4.169968   -0.440997
H      -3.410326   -5.164399   -1.123776
H      -1.802366   -4.293344    0.587224
H      -3.231774   -4.013955    1.611608
