18

O       0.187171    1.328450    0.136594
C       0.062542   -0.079803    0.137804
C      -1.388322   -0.585644    0.126839
C      -2.352333    0.342298    0.934240
O      -2.858759    0.925332   -0.343829
C      -2.258523   -0.117855   -0.992233
N      -2.538524   -0.840756   -1.986999
C      -1.765734   -2.091559   -1.701501
C      -1.493288   -2.098256   -0.146117
H      -0.207585    1.671945   -0.672307
H       0.606807   -0.535989   -0.702880
H       0.548817   -0.417481    1.060014
H      -3.173628   -0.156698    1.453280
H      -1.879451    1.114858    1.538677
H      -2.369467   -2.948306   -2.010858
H      -0.835081   -2.125043   -2.282040
H      -0.600474   -2.666221    0.131900
H      -2.351077   -2.538169    0.371774
