17

N      -0.192217    1.268253    0.037584
C      -0.253922    0.024462   -0.158332
O      -0.968380   -0.752819    0.686316
C      -0.976841   -2.138271    0.424224
C      -1.740608   -2.890391    1.530299
N      -2.925202   -2.973303    0.645580
C      -2.106057   -2.643196   -0.548468
C      -2.684278   -1.713826   -1.500856
C      -3.137122   -0.945420   -2.306638
H       0.390213    1.702219   -0.675448
H       0.235278   -0.537681   -0.964650
H       0.029848   -2.491563    0.183397
H      -1.269527   -3.850557    1.779263
H      -1.904555   -2.316910    2.446574
H      -3.392558   -3.871886    0.607405
H      -1.735321   -3.530232   -1.085529
H      -3.549586   -0.256393   -3.001802
