17

O      -0.009682    1.379239    0.086799
C       0.036956   -0.022434    0.027838
C      -1.379308   -0.622515   -0.151271
C      -1.246162   -0.266837   -1.662208
C       0.263874   -0.615958   -1.435497
C       0.172718   -2.076153   -1.081418
O       0.929366   -2.992755   -1.279600
C      -1.094414   -2.130384   -0.185934
O      -0.795398   -2.687540    1.075130
H       0.893592    1.710985    0.099739
H       0.654645   -0.441831    0.829282
H      -2.212958   -0.278148    0.458246
H      -1.804610   -0.863790   -2.388210
H      -1.385348    0.796226   -1.845201
H       1.074717   -0.288978   -2.083672
H      -1.912539   -2.675675   -0.682245
H      -0.208884   -3.437566    0.911801
