15

O      -0.613744    1.404212    0.444589
C      -0.009212    0.199418    0.001311
C       0.849765   -0.461763    1.082144
O      -0.061786   -1.101647    1.972623
C      -1.308273   -1.315134    1.310477
C      -1.132075   -0.827225   -0.148104
C      -1.685695   -2.734376    1.391456
N      -1.997974   -3.845490    1.442080
H       0.079789    2.020158    0.701495
H       0.548238    0.348404   -0.933429
H       1.539596   -1.193984    0.636511
H       1.438207    0.259830    1.659310
H      -2.079667   -0.727222    1.822388
H      -2.042033   -0.383262   -0.552233
H      -0.816364   -1.649255   -0.794242
