13

N      -0.159095    1.320181   -0.046670
C       0.049799   -0.022291   -0.046370
O       1.143045   -0.552992   -0.087709
C      -1.192465   -0.840796    0.008115
C      -1.358762   -2.187967    0.021752
C      -2.771532   -2.329744    0.080056
O      -3.431293   -3.493781    0.112679
N      -3.399680   -1.174788    0.099775
O      -2.386571   -0.215917    0.054355
H       0.641089    1.929170   -0.078223
H      -1.084981    1.710634   -0.006392
H      -0.600808   -2.950457   -0.005343
H      -4.377732   -3.299536    0.150195
