16

C       0.020992    1.568233    0.042666
C      -0.040615    0.060595    0.047693
C      -1.384924   -0.625260   -0.049855
C      -1.293534   -1.829847    0.509374
C       0.081859   -1.972562    1.083363
C       1.281774   -1.656871    0.221763
N       0.685440   -0.646061    1.220932
C       0.946183   -0.707737   -0.877743
O       1.448475   -0.447717   -1.933953
H       1.049181    1.914138    0.174506
H      -0.346482    1.953033   -0.913414
H      -0.592944    1.985047    0.846430
H      -2.218945   -0.215002   -0.604110
H      -2.046860   -2.604459    0.550870
H       0.272488   -2.661317    1.902479
H       2.241607   -2.139211    0.368043
