16

C      -0.216364    1.339496    0.240946
O      -0.128880   -0.077868    0.231371
C       0.883899   -0.579809    1.057151
O       0.630421   -0.401495    2.426342
C      -0.260522   -1.448850    2.855914
C       0.193813   -2.697104    2.093747
C       0.879892   -2.113404    0.857333
O       1.347592   -2.704899   -0.074189
H       0.718363    1.794004   -0.118395
H      -1.028993    1.611192   -0.435465
H      -0.431977    1.721348    1.245375
H       1.852456   -0.113147    0.834462
H      -0.161032   -1.528382    3.939450
H      -1.297138   -1.185921    2.613510
H       0.934085   -3.272900    2.659234
H      -0.610084   -3.377302    1.804518
