17

C      -0.108961    1.549421    0.021722
C      -0.022273    0.059711   -0.047693
C      -0.104552   -0.752680   -1.110277
C       0.063817   -2.213536   -0.787934
C       0.156334   -2.251565    0.760947
C       1.260292   -3.029596    1.292758
C       2.187828   -3.665808    1.715699
C       0.204140   -0.748036    1.176335
O       0.369828   -0.330066    2.294825
H       0.804034    1.965302    0.461105
H      -0.258614    1.993625   -0.965280
H      -0.931885    1.858401    0.675349
H      -0.263263   -0.415369   -2.130149
H      -0.769071   -2.815183   -1.168485
H       0.973048   -2.615593   -1.248440
H      -0.784920   -2.637338    1.174698
H       3.002658   -4.225491    2.103060
