18

C       0.061061    1.196377    0.554083
C       0.004046   -0.242697    0.103979
C       0.687645   -0.758310   -1.149377
C       1.521988    0.100654   -2.070348
N       1.160459   -1.113994    0.168708
C       2.401462   -1.005711    0.717509
O       3.452185   -1.211108    0.137561
C       2.433452   -0.716028    2.222499
O       1.483087   -0.413351    2.894133
H       0.995943    1.684561    0.268221
H      -0.768345    1.755458    0.108583
H      -0.028936    1.251084    1.641442
H      -0.921064   -0.749252    0.377458
H       0.180091   -1.580618   -1.653715
H       1.970416    0.951849   -1.554744
H       2.336564   -0.488591   -2.499201
H       0.900032    0.479176   -2.887769
H       3.463215   -0.804131    2.626037
