21

C       0.016148    1.704077    0.292758
C      -0.079570    0.198482    0.132989
C      -1.439855   -0.335333   -0.291839
C      -1.863865    0.111054   -1.705423
C      -3.119549   -0.594844   -2.159665
O      -4.133941   -0.051357   -2.512707
C       1.148540   -0.542235   -0.376557
C       0.723905   -0.665226    1.068900
O       1.462929   -0.027014    2.069017
H       0.972628    1.985586    0.735778
H      -0.083187    2.215549   -0.670292
H      -0.776636    2.074922    0.952621
H      -1.425346   -1.432585   -0.257477
H      -2.200302   -0.012955    0.431381
H      -2.032133    1.189187   -1.762775
H      -1.062326   -0.150132   -2.411986
H      -3.046579   -1.709322   -2.140496
H       1.018353   -1.397863   -1.032423
H       2.035816    0.050219   -0.575108
H       0.272096   -1.608884    1.378101
H       2.302645   -0.489200    2.158866
