29

C      -0.085287    1.663408   -0.098983
C       0.008210    0.141713    0.059013
C       0.627759   -0.528046   -1.176373
C       0.750992   -2.077877   -1.170295
C       1.491339   -2.558421    0.093688
C      -0.665354   -2.689369   -1.179653
C       1.516689   -2.507448   -2.473604
C       3.004841   -2.113868   -2.484447
C       1.406120   -4.006266   -2.806816
H       0.903892    2.107537   -0.258050
H      -0.708996    1.935247   -0.958049
H      -0.520765    2.131284    0.789658
H       0.605490   -0.088955    0.948809
H      -0.994657   -0.257047    0.251348
H       0.040755   -0.238340   -2.059659
H       1.621386   -0.088484   -1.322690
H       0.884657   -2.396168    0.989598
H       1.709424   -3.630128    0.044353
H       2.439414   -2.031089    0.237949
H      -1.192920   -2.456129   -2.111953
H      -0.638342   -3.777011   -1.072434
H      -1.267153   -2.302740   -0.352369
H       1.029579   -1.963132   -3.296000
H       3.579777   -2.706983   -1.765193
H       3.433622   -2.302785   -3.474130
H       3.171846   -1.058469   -2.255004
H       0.376458   -4.320881   -2.991047
H       1.982488   -4.230413   -3.710645
H       1.811105   -4.632937   -2.004074
