12

C      -0.018351    1.419926   -0.028562
C       0.002703   -0.066783    0.007338
N      -0.065469   -0.794573   -1.111557
N      -0.012429   -2.041182   -0.579570
N      -0.026319   -3.306477   -1.010493
N       0.052453   -4.063694   -0.014239
O       0.126780   -3.241157    1.209479
C       0.080440   -1.994239    0.770408
N       0.094638   -0.765071    1.206780
H       0.895585    1.822291    0.418859
H      -0.102299    1.770640   -1.057654
H      -0.861588    1.800573    0.555568
