15

O       0.541692   -0.180067    0.673128
C       0.181026    0.908670    0.320515
C       1.117078    1.989747   -0.210694
C       1.389749    3.063023    0.858291
O       2.494871    2.512069    1.562203
C       3.194525    1.645279    0.683351
O       2.411820    1.494962   -0.485434
C       4.518335    2.301527    0.281698
O       5.596392    1.826990    0.508164
H      -0.886894    1.225676    0.377165
H       0.695721    2.412715   -1.129417
H       1.641958    4.023370    0.391044
H       0.570472    3.213943    1.566727
H       3.369773    0.688189    1.186810
H       4.384228    3.280305   -0.230918
