19

C      -0.254845    1.458092    0.193100
C       0.037046   -0.031514    0.045612
C      -1.179744   -0.801301   -0.445582
O       1.171934   -0.250008   -0.834362
C       1.997187   -0.755546    0.226261
C       0.862237   -0.638362    1.265722
O       1.057270    0.169577    2.398660
C       0.352784   -1.956539    1.813957
O       0.402500   -3.003106    1.220967
H       0.650120    2.030514    0.421183
H      -0.646180    1.843811   -0.753002
H      -0.995243    1.642102    0.977112
H      -1.482978   -0.409390   -1.421557
H      -0.954588   -1.862884   -0.556337
H      -2.023027   -0.687711    0.244566
H       2.337832   -1.778137    0.033905
H       2.858565   -0.108618    0.441255
H       1.397911    1.025072    2.120773
H      -0.078354   -1.871146    2.834351
