15

O      -0.213496   -0.104925   -0.363788
C      -0.086601    1.056745   -0.163268
C      -1.137517    2.247331    0.145454
C       0.027380    2.784008    0.992205
O       0.985502    3.940579    1.090997
C       1.974991    2.826312    1.157546
C       1.578517    2.139360    2.470300
C       0.250520    2.120284    2.361347
C       1.047964    2.109625    0.092504
H      -1.343629    2.816704   -0.763265
H      -2.069022    1.962713    0.639483
H       2.998385    3.144168    0.965147
H       2.240713    1.806675    3.255322
H      -0.516288    1.747583    3.024577
H       1.111161    2.684370   -0.839664
