19

C      -0.011257    1.505669    0.237536
C       1.329798    2.193133   -0.100654
C       2.332023    1.218042   -0.699292
C       1.956013    0.247249   -1.847882
O       3.058758   -0.614889   -1.394489
C       2.618599   -0.166624   -0.063996
C       1.236868   -0.834187    0.063889
C       0.011053    0.032008   -0.112459
C       0.717941   -0.510075   -1.333288
H      -0.241124    1.612769    1.303624
H      -0.836536    1.984815   -0.301160
H       1.175801    3.017188   -0.806382
H       1.770458    2.644998    0.795158
H       3.280918    1.699549   -0.940029
H       2.008554    0.511457   -2.903961
H       3.355444   -0.329868    0.722312
H       1.162530   -1.825290    0.494251
H      -0.919979   -0.484485    0.113529
H       0.249299   -1.254884   -1.964680
