17

C       0.025716    1.571708    0.004527
O       1.374085    1.996201   -0.224959
C       2.023516    0.994552   -0.971219
C       2.554585   -0.223436   -0.247459
O       2.678480   -0.367536    1.132664
C       1.541304   -0.031585    1.907516
O       0.333911   -0.483603    1.357636
C       0.072472    0.036835    0.051806
C       1.206935   -0.282918   -0.926545
H      -0.328102    2.018462    0.937696
H      -0.623019    1.903513   -0.819649
H       2.518256    1.354404   -1.868796
H       3.376071   -0.740497   -0.733889
H       1.661913   -0.554332    2.859099
H       1.519047    1.053820    2.074240
H      -0.875081   -0.414543   -0.246355
H       1.020546   -0.925422   -1.777948
