14

C       0.048301    1.375478    0.009558
N       1.315650    1.825505   -0.000318
N       2.054874    0.709342   -0.013587
C       3.417971    0.652453   -0.027151
C       4.003690   -0.578609   -0.039570
N       3.302448   -1.752066   -0.039166
C       1.994067   -1.677643   -0.026034
C       1.284754   -0.452705   -0.012443
C      -0.040426   -0.018030    0.002796
H      -0.758143    2.094184    0.021317
H       3.937679    1.600198   -0.027032
H       5.084347   -0.659935   -0.050520
H       1.434149   -2.609989   -0.025692
H      -0.926395   -0.630810    0.008071
