16

C       0.087797    1.356795   -0.090218
C      -0.024055   -0.139767    0.074771
N      -0.115137   -0.661300    1.230687
N      -0.012117   -0.813252   -1.152637
C      -0.094525   -2.166202   -1.379102
N      -0.203512   -3.091155   -0.433171
N      -0.246615   -4.234732   -1.177968
C      -0.164781   -3.944931   -2.485220
N      -0.066124   -2.641777   -2.661463
H       1.019211    1.629239   -0.600060
H      -0.743230    1.751454   -0.686273
H       0.071824    1.819835    0.895057
H      -0.182835   -1.677748    1.179419
H       0.067011   -0.269125   -1.996866
H      -0.332778   -5.124866   -0.717285
H      -0.179240   -4.694269   -3.262117
