18

C      -0.068941    1.560207   -0.012652
C       0.016880    0.023695   -0.004172
C       0.738742   -0.512881    1.211279
C       2.116802   -0.749194    1.184105
C       2.784493   -1.208787    2.316185
C       2.091990   -1.444578    3.500867
C       0.724883   -1.208584    3.516549
F       0.038694   -1.434216    4.644465
C       0.042279   -0.750923    2.399458
H       0.929839    2.007865   -0.005954
H      -0.596582    1.916816   -0.902834
H      -0.602701    1.927510    0.869493
H      -0.995607   -0.394142   -0.043444
H       0.530680   -0.314526   -0.910920
H       2.669286   -0.575266    0.265977
H       3.853355   -1.390792    2.276934
H       2.585374   -1.806152    4.394933
H      -1.028280   -0.588545    2.466296
