21

C       0.011194    1.572804   -0.151061
C      -0.024339    0.050683   -0.035609
C       1.044076   -0.634938   -0.934773
O       1.895449   -0.893518    0.198959
C       0.871419   -0.474862    1.122601
C      -1.410816   -0.560899   -0.104269
O      -1.292881   -1.960710    0.014578
C      -2.619473    0.099064    0.508872
C      -2.492991   -0.018388   -1.002634
H       1.048110    1.915994   -0.090642
H      -0.394551    1.922499   -1.105818
H      -0.542755    2.059755    0.657956
H       0.705016   -1.560257   -1.411841
H       1.530846    0.009317   -1.677639
H       1.236639    0.282047    1.827981
H       0.446081   -1.320238    1.673256
H      -2.169514   -2.353573   -0.026401
H      -3.332161   -0.548830    1.010443
H      -2.532232    1.081806    0.957310
H      -2.320406    0.885043   -1.575786
H      -3.121167   -0.744748   -1.509623
