19

O      -0.004196    1.418214   -0.067049
C       0.049868    0.007825    0.027961
C      -1.349921   -0.593537    0.044467
O      -1.968071   -0.184090   -1.182158
C      -3.361096   -0.437939   -1.191108
C      -3.694468   -1.831789   -0.737320
C      -2.798209   -2.606842   -0.129515
C      -1.392462   -2.123713    0.141292
O      -0.459081   -2.753265   -0.736828
H      -0.585773    1.605279   -0.813320
H       0.623983   -0.437943   -0.795386
H       0.564506   -0.235974    0.962946
H      -1.909150   -0.163841    0.891884
H      -3.891068    0.301644   -0.562799
H      -3.697925   -0.277703   -2.221911
H      -4.706981   -2.177905   -0.929137
H      -3.037262   -3.626565    0.157361
H      -1.077986   -2.423786    1.147890
H      -0.737891   -2.526295   -1.632155
