19

C       0.089821    1.557666    0.106977
C       0.015054    0.018370    0.019248
C      -1.405370   -0.535530    0.284195
C      -1.921240   -0.237365    1.689249
O      -3.124623   -0.977195    1.934013
C      -4.288917   -0.303064    1.970848
O      -5.342493   -0.838361    2.137294
C       0.494803   -0.444757   -1.281878
C       0.871170   -0.812864   -2.362408
H       1.098750    1.905080   -0.127535
H      -0.600095    2.018322   -0.606821
H      -0.163264    1.909754    1.111305
H       0.682630   -0.395960    0.788973
H      -2.100537   -0.126772   -0.458418
H      -1.398070   -1.620893    0.146923
H      -1.201451   -0.560917    2.448461
H      -2.109630    0.832832    1.836946
H      -4.155306    0.789394    1.838080
H       1.212680   -1.144460   -3.311694
