13

O      -0.054231   -0.067642    0.021884
C       0.032022    1.136311    0.001921
N      -1.045760    2.027791   -0.018571
C      -0.711979    3.452100    0.022261
C       0.770616    3.322977    0.010298
C       1.205532    2.049958   -0.006149
N       2.592940    2.033277   -0.024801
C       2.896342    3.289753   -0.019955
O       1.824269    4.162717    0.000104
H      -1.986391    1.684592    0.078833
H      -1.105234    3.995114   -0.847437
H      -1.093048    3.943664    0.927683
H       3.872061    3.749006   -0.028283
