18

C      -0.018453    1.507845    0.090964
C      -0.017146    0.002061   -0.006106
C      -0.008972   -0.665610   -1.229583
C      -0.019273    0.023996   -2.568387
C       0.000300   -2.075379   -1.158798
N      -0.026699   -2.848974   -2.292548
N      -0.007600   -2.737344    0.005799
C      -0.026227   -1.982577    1.099957
N      -0.026413   -0.656571    1.169766
H       0.855634    1.946426   -0.402684
H      -0.907468    1.941678   -0.380373
H      -0.007579    1.793382    1.143036
H       0.911084   -0.153839   -3.126313
H      -0.842919   -0.341802   -3.194012
H      -0.132106    1.104238   -2.472201
H       0.329742   -2.460267   -3.149266
H       0.175847   -3.824538   -2.136391
H      -0.037352   -2.517068    2.048056
