18

C      -0.086158    1.573632   -0.034060
C       0.078948    0.057143   -0.003363
C       0.942556   -0.524599   -1.129684
O       1.321171   -1.829612   -0.670825
C       1.492045   -1.789691    0.706935
O       2.886074   -1.578671    1.067696
C       2.940715   -0.335310    1.597143
N       1.877168    0.338479    1.752594
C       0.786906   -0.512330    1.250503
H       0.881777    2.072053    0.055680
H      -0.561403    1.893388   -0.967332
H      -0.711982    1.916502    0.795135
H      -0.906345   -0.421253   -0.062658
H       0.408242   -0.653487   -2.073491
H       1.833130    0.093633   -1.312483
H       1.208993   -2.758182    1.120313
H       3.937800   -0.003903    1.867744
H       0.081654   -0.709715    2.061700
