17

C      -0.103019    1.628565   -0.044796
C       0.065116    0.114169   -0.039692
C       0.721916   -0.616427   -1.225199
C       2.155318   -0.256426   -1.335181
C       1.764623   -1.303429   -0.278644
C       2.300142   -2.618007   -0.268308
C       2.743635   -3.736186   -0.235388
C       1.123890   -0.559403    0.877383
O       1.271232   -0.594288    2.062986
H       0.817477    2.142217   -0.337242
H      -0.893910    1.934854   -0.736799
H      -0.375763    1.976768    0.956004
H      -0.889735   -0.365279    0.212185
H       0.186316   -1.119391   -2.019333
H       2.703076   -0.682969   -2.168238
H       2.518419    0.714925   -1.013463
H       3.134461   -4.722756   -0.201332
