20

C       0.244845    1.645980   -0.131148
C       0.134314    0.133631   -0.024708
C       0.593414   -0.780701   -1.194095
C       1.890573   -0.377238   -1.952841
C       2.731973   -1.303574   -1.022070
C       1.460810   -1.640006   -0.207938
C       1.099550   -0.649149    0.955900
C       2.198629    0.099173    1.540524
N       3.078811    0.706094    1.983463
H       1.272310    1.974208   -0.309618
H      -0.379011    2.017774   -0.951106
H      -0.093232    2.127157    0.792371
H      -0.892116   -0.130216    0.247974
H      -0.203781   -1.206646   -1.804651
H       1.893193   -0.683829   -3.001041
H       2.145847    0.684080   -1.916258
H       3.132427   -2.177261   -1.541458
H       3.546076   -0.832825   -0.465885
H       1.263576   -2.687454    0.020042
H       0.553992   -1.136588    1.767780
