21

C      -0.108089    1.513527   -0.009695
C       0.019446   -0.020167   -0.104068
C       0.774265   -0.413297   -1.293124
C       1.421785   -0.727398   -2.256706
C       0.672653   -0.608038    1.161046
C      -0.094074   -0.521631    2.528486
C       0.060694   -2.039593    2.685778
C      -0.605934   -2.740500    1.538689
C       0.752748   -2.131728    1.322350
H       0.879273    1.977828    0.075237
H      -0.597627    1.921095   -0.897917
H      -0.697124    1.793328    0.868929
H      -0.992396   -0.438978   -0.192481
H       1.980793   -1.010346   -3.113831
H       1.668303   -0.166227    1.267320
H       0.447355    0.062525    3.275231
H      -1.127481   -0.158179    2.486895
H       0.307336   -2.550901    3.608017
H      -0.612154   -3.824473    1.591927
H      -1.496902   -2.319569    1.077666
H       1.599003   -2.738319    1.024736
