22

C      -0.109868    1.545875   -0.110895
C      -0.022451    0.025479    0.057130
C       0.692790   -0.440566    1.310634
C       2.150834    0.012859    1.723590
C       1.696194   -0.587503    3.085601
C       0.299386    0.000971    2.751287
N       1.696860   -2.044975    2.729230
C       0.373360   -2.689423    2.652347
C       0.903864   -1.959961    1.471797
H       0.884685    2.001237   -0.157118
H      -0.635316    1.804561   -1.035166
H      -0.651765    2.011441    0.718694
H      -1.034837   -0.400834    0.054435
H       0.485466   -0.406439   -0.816246
H       2.993446   -0.480165    1.232252
H       2.285088    1.096614    1.741670
H       2.209380   -0.386587    4.025183
H       0.303273    1.087217    2.853298
H      -0.603972   -0.394907    3.217516
H       0.436211   -3.774553    2.646967
H      -0.465257   -2.305864    3.221726
H       1.275233   -2.510346    0.609607
