20

O      -0.090020    1.472693    0.066888
C       0.046048    0.058391    0.036970
C       0.774233   -0.478608    1.275874
C       0.792662   -2.014435    1.302074
C      -0.626637   -2.589008    1.211512
C      -1.384212   -2.052440   -0.028608
C      -1.371935   -0.506057   -0.053355
C      -0.815961   -2.606993   -1.264307
N      -0.362270   -3.048213   -2.232048
H       0.792386    1.856102    0.098327
H       0.601655   -0.251574   -0.863683
H       1.799132   -0.087163    1.300545
H       0.263319   -0.089620    2.166551
H       1.389973   -2.392321    0.462719
H       1.278657   -2.371525    2.215742
H      -0.602930   -3.682474    1.188286
H      -1.203390   -2.296446    2.097444
H      -2.425242   -2.393116    0.015489
H      -1.945974   -0.144648    0.807714
H      -1.862403   -0.128934   -0.954690
