16

N      -0.233726    1.384246    0.144619
C      -0.094526    0.123209    0.189372
O       1.149519   -0.457376    0.234108
C       1.230513   -1.809819    0.694676
C       0.246249   -2.736043   -0.013941
C      -1.113379   -2.098217   -0.014851
C      -1.251393   -0.776305    0.115525
C       2.685450   -2.223200    0.532923
O       3.043182   -3.368382    0.457228
H       0.679827    1.840752    0.186610
H       1.012774   -1.823282    1.776380
H       0.580678   -2.937435   -1.040702
H       0.240253   -3.702660    0.498003
H      -1.983248   -2.735954   -0.139564
H      -2.214776   -0.281994    0.114961
H       3.395157   -1.368798    0.504436
