18

C      -0.042731    1.484555   -0.030220
C      -0.033497   -0.028293    0.022581
C      -0.839882   -0.752252    1.091818
C       0.666230   -0.745182    1.144338
O       1.321732   -1.936563    0.834256
C       2.065999   -1.843898   -0.373448
C       1.188657   -1.477010   -1.571962
O       1.409256   -1.879374   -2.696439
N       0.128712   -0.676532   -1.249316
H       0.868273    1.864811   -0.503756
H      -0.902181    1.851027   -0.604026
H      -0.114001    1.909491    0.975037
H      -1.387465   -0.159709    1.816445
H      -1.297042   -1.692890    0.808937
H       1.165843   -0.141225    1.901664
H       2.885612   -1.113331   -0.285092
H       2.500409   -2.825652   -0.565052
H      -0.504308   -0.455184   -2.005833
