23

C       0.002577    1.405109    0.055104
O      -0.010186    0.007315   -0.101535
C      -1.307678   -0.584662   -0.031514
C      -1.232671   -1.924695   -0.760785
C      -2.486942   -2.758194   -0.486622
C      -2.628835   -3.060011    1.011352
C      -2.338870   -1.859883    1.885509
C      -2.728004   -1.991067    3.333115
C      -1.759897   -0.758775    1.399140
H       1.036498    1.735395   -0.075969
H      -0.626872    1.905279   -0.698747
H      -0.338519    1.728562    1.050264
H      -2.016355    0.077895   -0.562227
H      -1.092631   -1.752578   -1.832400
H      -0.341546   -2.451799   -0.399005
H      -3.371862   -2.206731   -0.830760
H      -2.459519   -3.691124   -1.059412
H      -3.636305   -3.438383    1.230602
H      -1.946561   -3.875380    1.297430
H      -2.240338   -2.860612    3.793214
H      -2.454772   -1.103771    3.910305
H      -3.808799   -2.151027    3.440433
H      -1.576750    0.082089    2.064755
