23

C      -0.065090    1.612285   -0.038414
C       0.120435    0.102881   -0.005737
C       1.222868   -0.537409   -0.912032
C       1.477065   -1.568001    0.227413
C       0.749115   -0.626380    1.236029
C       1.744248    0.238105    2.014776
C      -0.244322   -1.289121    2.185318
C       0.766684   -1.078780   -2.234375
O       1.219467   -0.781387   -3.310621
H       0.870766    2.142082    0.163057
H      -0.422999    1.936071   -1.021718
H      -0.801885    1.937132    0.704726
H      -0.837961   -0.383408   -0.231638
H       2.067817    0.135618   -1.074495
H       0.920066   -2.496265    0.059093
H       2.520199   -1.820300    0.433313
H       2.484090    0.709421    1.359980
H       1.234757    1.032952    2.570235
H       2.290762   -0.375638    2.739636
H       0.270170   -1.914207    2.924647
H      -0.825643   -0.539947    2.735914
H      -0.949511   -1.926936    1.641643
H      -0.074366   -1.811294   -2.150615
