11

F      -0.422389    0.169343   -0.285894
C      -0.046135    1.411922    0.013186
F       1.268002    1.415332    0.231214
F      -0.300162    2.200861   -1.034646
C      -0.798085    1.921536    1.241134
C      -2.098849    1.324983    1.602388
O      -0.903685    0.993013    2.306837
C      -0.496718    3.294755    1.598372
N      -0.263662    4.390958    1.875729
H      -2.813160    1.935564    2.148536
H      -2.501720    0.540405    0.968333
