23

C       0.093263    1.325883    0.238915
O       0.012297   -0.017676   -0.204196
C      -1.263852   -0.537070   -0.138296
C      -1.863984   -1.034605    1.146420
C      -1.648305   -1.995430   -0.007013
C      -2.723832   -1.831981   -1.104814
C      -2.315427   -2.578692   -2.376075
C      -4.165515   -2.161261   -0.722070
C      -2.352137   -0.301010   -1.195586
H       1.140553    1.626470    0.160638
H      -0.516128    1.997166   -0.383021
H      -0.234867    1.424713    1.283270
H      -1.145822   -1.152615    1.952069
H      -2.860523   -0.743251    1.469759
H      -1.008073   -2.863899    0.101422
H      -2.396051   -3.663001   -2.235087
H      -2.958670   -2.301205   -3.218851
H      -1.279815   -2.352718   -2.650305
H      -4.475704   -1.648854    0.193380
H      -4.856745   -1.863702   -1.519023
H      -4.290415   -3.237977   -0.559362
H      -3.139411    0.412785   -0.930981
H      -1.941584   -0.035169   -2.172759
