12

N      -0.124777   -3.763283   -0.035994
C      -0.074167   -2.603158   -0.016019
C      -0.023587   -1.239047    0.004854
C       0.016037   -0.032569    0.028130
C       0.040327    1.399200    0.018091
N       0.532074    2.079169    1.227186
C       1.333381    2.181708    0.004827
C       2.616207    1.521444    0.002285
N       3.650257    1.007779   -0.035255
H      -0.774178    1.862013   -0.535569
H       0.015837    2.941585    1.383132
H       1.314199    3.109944   -0.560551
