18

C       0.020148    1.498138    0.122705
C      -0.072804   -0.021907    0.158047
O       0.361197   -0.555472    1.400534
C      -1.513214   -0.555180   -0.142016
C      -2.019271   -0.058420   -1.417091
N      -2.418554    0.358215   -2.418420
C      -1.457032   -2.110474   -0.152658
C      -2.038789   -2.802175    1.054465
O      -0.933537   -2.683618   -1.071978
H       1.044268    1.807766    0.347959
H      -0.256495    1.890812   -0.858492
H      -0.650051    1.948869    0.866315
H       0.586263   -0.459233   -0.598508
H       0.057689    0.031602    2.101847
H      -2.179745   -0.204284    0.655003
H      -3.096713   -2.541354    1.172396
H      -1.929448   -3.882471    0.956535
H      -1.510478   -2.448936    1.946630
