18

C       0.079475   -1.158420    0.067488
C       0.048940    0.042827    0.025017
C      -0.033741    1.477605   -0.023165
C       0.339325    2.216800   -1.270217
N       1.238689    2.260549   -0.119022
C       1.099935    3.439941    0.768927
C      -0.240584    3.368113    1.503241
C      -1.523289    3.511332    0.724915
C      -0.957979    2.138468    0.989138
H       0.122972   -2.218684    0.101574
H       0.721678    1.655231   -2.118568
H      -0.230440    3.100661   -1.541892
H       1.915974    3.397957    1.497062
H       1.228438    4.360055    0.186914
H      -0.248102    3.620165    2.558178
H      -2.410840    3.783330    1.287268
H      -1.504920    3.926703   -0.275927
H      -1.492477    1.469249    1.650917
