19

C      -0.089681    1.578420    0.204251
C       0.010272    0.055132   -0.050276
C      -1.336919   -0.543778   -0.000203
N      -2.403073   -0.985537    0.051955
N       0.682948   -0.370761   -1.277769
C       0.071033    0.099344   -2.514958
C       2.129240   -0.156766   -1.230758
C       2.839846   -0.939803   -2.239656
C       3.441604   -1.567150   -3.068561
H       0.908361    2.024515    0.220246
H      -0.682773    2.072334   -0.568553
H      -0.564606    1.768061    1.170386
H       0.571685   -0.389512    0.781700
H       0.186137    1.184417   -2.681976
H       0.534899   -0.421664   -3.355497
H      -0.994989   -0.141517   -2.510189
H       2.407858    0.907355   -1.354859
H       2.485579   -0.455159   -0.236686
H       3.971106   -2.131920   -3.795656
