14

N      -0.026104    1.332674    0.008383
C      -0.002267   -0.014883    0.000882
N      -1.196070   -0.644222    0.004270
C      -1.140962   -1.967492   -0.003374
C       0.055332   -2.689305   -0.014274
C       0.083911   -4.154127   -0.022546
O       1.091163   -4.827615   -0.031858
C       1.227223   -1.916099   -0.016769
N       1.220532   -0.595407   -0.009418
H       0.839950    1.840795    0.006177
H      -0.908472    1.811727    0.016110
H      -2.096729   -2.491902   -0.000756
H      -0.923633   -4.630077   -0.019123
H       2.194362   -2.413165   -0.025101
