21

C      -0.037497    1.572521   -0.218389
C      -0.039476    0.111084    0.241904
C      -1.394977   -0.546516    0.071397
O      -1.860021   -0.620592   -1.316122
C      -2.140950   -2.010375   -1.158223
C      -0.886960   -2.784633   -0.905889
C      -1.578372   -2.058834    0.243577
C      -2.022479   -2.733181    1.503358
O      -0.990409   -2.778759    2.484026
H       0.952465    2.022616   -0.100105
H      -0.321437    1.642254   -1.272369
H      -0.748939    2.171572    0.360696
H       0.715032   -0.455477   -0.315082
H       0.227505    0.039066    1.304036
H      -2.151517   -0.007562    0.660323
H      -3.052229   -2.401338   -1.596551
H      -1.005560   -3.864763   -0.879047
H       0.051199   -2.435181   -1.326171
H      -2.839384   -2.172513    1.971515
H      -2.406199   -3.740678    1.275355
H      -0.234593   -3.219985    2.081584
