21

C      -0.099688   -1.198053   -0.087126
C      -0.074256    0.002399   -0.146747
C      -0.006945    1.456797   -0.204778
C       1.388784    2.008363    0.190263
C       1.464287    3.504873    0.124254
C       1.617993    4.340780    1.154027
C       1.710733    5.785656    0.729861
C       1.255021    5.741065   -0.751824
C       1.433518    4.266641   -1.189833
H      -0.136328   -2.257932   -0.039432
H      -0.264078    1.793363   -1.216502
H      -0.762433    1.889764    0.462336
H       1.626813    1.663354    1.201191
H       2.133396    1.561286   -0.480992
H       1.717510    4.027408    2.188650
H       1.090159    6.453391    1.338444
H       2.742272    6.153700    0.830437
H       0.195821    6.010586   -0.812366
H       1.802100    6.441997   -1.387265
H       2.376886    4.109926   -1.733809
H       0.637820    3.934867   -1.866961
