16

O       0.196386    1.568169    0.015884
C       0.041633    0.178637    0.029475
C       0.634169   -0.433864   -1.223606
O       1.166694    0.245776   -2.067579
C       0.695980   -0.404226    1.295087
C      -0.025226   -0.071354    2.632477
C      -0.178768   -1.601894    2.799513
O      -0.591519   -2.349539    3.639955
N       0.398750   -1.818646    1.559725
H       0.648144    1.776136   -0.817953
H      -1.025962   -0.106847    0.050414
H       0.554096   -1.534681   -1.325001
H       1.763662   -0.159264    1.298992
H       0.597434    0.396513    3.395819
H      -0.960308    0.481979    2.532290
H       0.799247   -2.664403    1.179084
