15

N       0.548142    0.367785    0.833045
C      -0.021892    0.029487   -0.357753
O       0.315959    0.516759   -1.420584
C      -1.119228   -1.009803   -0.307471
C      -0.986479   -2.471495    0.123336
C      -0.191499   -2.587480    1.416871
O      -1.031529   -1.580101    2.063119
C      -1.864140   -1.519146    0.893178
H       1.215748    1.121566    0.825203
H       0.143872    0.045052    1.700419
H      -1.746553   -0.929195   -1.190360
H      -1.235114   -3.285127   -0.543264
H      -0.320235   -3.551758    1.917905
H       0.864112   -2.300261    1.405797
H      -2.934073   -1.441907    1.046961
