19

C      -0.120110    1.483519    0.057066
N      -0.025579    0.024648    0.016687
C       0.718587   -0.502443    1.152084
C       2.126203   -0.084262    1.130748
N       3.234086    0.242094    1.131793
C      -1.327001   -0.625844   -0.110262
C      -1.955249   -0.377350   -1.460467
C      -3.408040   -0.456324   -1.652136
O      -2.745300    0.806872   -1.610321
H       0.884428    1.913899    0.069521
H      -0.642258    1.844947   -0.829005
H      -0.667645    1.845340    0.946869
H       0.294169   -0.203950    2.131124
H       0.695891   -1.597381    1.118785
H      -1.176792   -1.707376   -0.000966
H      -2.039122   -0.310065    0.676024
H      -1.304755   -0.589150   -2.309385
H      -3.808393   -0.746413   -2.622020
H      -4.052029   -0.673209   -0.800505
