15

N      -0.074656    0.954246    0.683048
C      -0.008598   -0.101635    0.009077
O       1.136310   -0.720738   -0.432799
C       0.797869   -1.931962   -1.080670
C       0.797448   -3.218798   -0.234254
N       0.054370   -2.893204    0.995294
C      -0.705192   -3.235986   -0.219399
C      -0.751524   -1.952484   -1.069796
O      -1.122890   -0.751214   -0.427459
H       0.860920    1.292268    0.893870
H       1.306598   -2.003415   -2.042428
H       1.506276   -4.035402   -0.273858
H       0.068235   -3.714613    1.596854
H      -1.395030   -4.069195   -0.243805
H      -1.269786   -2.045687   -2.024546
