20

C      -0.194599    1.490532   -0.013542
C       0.021327   -0.029950   -0.026206
O       0.587566   -0.542807   -1.223104
C       1.792156    0.013517   -1.712848
C       3.025332   -0.428878   -0.928059
C       3.055906    0.095133    0.508151
N       2.054568   -0.496569    1.386203
C       0.690159   -0.486674    1.286576
O      -0.009795   -0.821393    2.226855
H       0.737298    2.058516    0.058946
H      -0.719067    1.799416   -0.922378
H      -0.809954    1.749543    0.851964
H      -0.959937   -0.507744    0.019420
H       1.867258   -0.337684   -2.746952
H       1.742420    1.112140   -1.746960
H       3.075328   -1.523178   -0.917631
H       3.917334   -0.058315   -1.448807
H       4.026555   -0.139430    0.953533
H       2.977454    1.193548    0.498838
H       2.358081   -0.760942    2.312515
