17

O      -0.117906    1.396215    0.117555
C       0.028216    0.028729    0.043557
C      -1.049393   -1.008009    0.066604
C      -0.184835   -0.847636   -1.185457
C       0.863635   -1.996089   -1.124602
C       1.991776   -1.390578   -0.259101
C       1.019716   -0.879469    0.813356
C      -0.122926   -2.003564    0.786896
O       0.293785   -2.940180   -0.198268
H       0.585202    1.809101   -0.395842
H      -2.128614   -0.930902    0.078731
H      -0.613254   -0.456547   -2.097832
H       1.122507   -2.491656   -2.058097
H       2.689083   -2.158279    0.084192
H       2.537527   -0.580250   -0.752807
H       1.393804   -0.545759    1.778224
H      -0.430414   -2.499626    1.703887
