22

C      -0.372741    1.743257   -0.843451
C      -0.140134    0.360539   -0.200171
C      -1.465684   -0.372054    0.154066
C      -2.006878   -0.100276    1.572147
C      -3.447865   -0.621675    1.672700
C      -1.129649   -0.755103    2.650598
O      -1.995715    1.323683    1.737869
C       0.676658   -0.475949   -1.086606
N       1.311906   -1.137247   -1.790900
H       0.577429    2.244839   -1.044690
H      -0.908765    1.638277   -1.791417
H      -0.967950    2.354147   -0.164921
H       0.442596    0.504940    0.716274
H      -2.224096   -0.079793   -0.579957
H      -1.331288   -1.452526    0.052416
H      -3.500521   -1.695733    1.468187
H      -3.848060   -0.455523    2.679582
H      -4.089740   -0.098358    0.958782
H      -0.100459   -0.388750    2.610777
H      -1.524454   -0.528827    3.647931
H      -1.112355   -1.843939    2.541529
H      -2.317617    1.522739    2.623332
