15

N       0.190243   -1.128713    0.186365
C       0.081022    0.016021    0.081718
C      -0.044175    1.493117    0.010637
C      -0.715906    2.047434    1.302548
C       0.506233    2.300489    2.191875
C       1.538711    2.780799    1.172401
O       1.251407    2.068465   -0.048095
C      -0.803081    1.860388   -1.201537
N      -1.415258    2.172952   -2.128919
H      -1.225736    2.981421    1.053606
H      -1.443942    1.349367    1.715794
H       0.309663    3.037263    2.973034
H       0.834621    1.371416    2.666814
H       1.451175    3.857904    0.982384
H       2.570904    2.554856    1.449473
