21

C      -0.922364    1.389360    0.091417
O      -0.251273    0.203069    0.450818
C      -0.942603   -0.957736    0.074401
C      -0.896849   -1.396435   -1.419425
C      -0.583453   -2.847956   -0.934005
C      -0.226481   -2.262971    0.465093
C      -1.778893   -3.766885   -0.980890
C      -2.077829   -4.772288    0.044874
O      -2.822355   -3.552114   -0.023034
H      -0.318581    2.227544    0.447871
H      -1.044153    1.481174   -0.998695
H      -1.920525    1.447489    0.553514
H      -1.975807   -0.934710    0.448772
H      -1.795800   -1.256827   -2.025409
H      -0.040617   -0.943670   -1.926821
H       0.240489   -3.338109   -1.462078
H       0.847644   -2.089787    0.563642
H      -0.593995   -2.783087    1.350995
H      -2.152106   -3.962834   -1.989074
H      -2.631128   -5.671151   -0.223474
H      -1.424541   -4.872058    0.910091
