13

O      -0.862154    1.389661    0.195403
C       0.243706    0.993356   -0.077606
C       1.490122    1.877357   -0.228859
O       2.533017    1.316183   -0.508525
C       1.367836    3.315475   -0.034551
C       2.340153    4.309002   -0.116837
C       1.656870    5.496542    0.163062
N       0.355139    5.274049    0.403551
N       0.204685    3.960968    0.279583
H       0.477317   -0.076171   -0.251488
H       3.381689    4.160082   -0.347758
H       2.039869    6.504802    0.203372
H      -0.693421    3.518648    0.411404
