18

O      -0.674860    0.651587    0.454383
C       0.165809    0.918165   -0.364873
C       1.335804    1.848221   -0.139000
C       1.365588    2.989728   -1.169150
C       2.599901    3.890149   -1.023264
C       2.620545    4.994561   -2.051483
C       3.858846    5.460997   -2.685851
O       2.954045    4.607453   -3.388873
H       0.124489    0.479463   -1.390349
H       1.287110    2.227753    0.886137
H       2.255312    1.252425   -0.238737
H       1.351285    2.575131   -2.184496
H       0.455593    3.594509   -1.066349
H       2.621823    4.334761   -0.019410
H       3.511044    3.289145   -1.128957
H       1.787076    5.698505   -1.996958
H       3.927645    6.481345   -3.060514
H       4.808505    5.006005   -2.406088
