22

C      -0.047173    1.574275   -0.114764
C      -0.164739    0.061025   -0.001798
N       0.649798   -0.485696    1.132893
H       1.631057   -0.219160    1.021032
H       0.351655   -0.066907    2.018003
C       0.621961   -2.014775    1.304395
C       1.471678   -2.459637    2.464155
C       0.910977   -2.119805    3.841260
C       1.714102   -4.058282    2.255865
O       1.875637   -4.680632    3.306940
O       1.717415   -4.393390    1.055786
H       0.985194    1.886093   -0.302920
H      -0.657074    1.925096   -0.951004
H      -0.403226    2.076584    0.790422
H      -1.194295   -0.256079    0.179371
H       0.189143   -0.447271   -0.901550
H      -0.434368   -2.269913    1.429704
H       1.006369   -2.467079    0.387778
H       2.477639   -2.023820    2.347216
H      -0.133258   -2.443122    3.930176
H       1.480680   -2.685025    4.581338
H       0.959571   -1.049319    4.101855
