21

C       0.676247    1.653095   -0.006940
C       0.256274    0.179374   -0.009242
C       1.021336   -0.641790   -1.084766
O       1.571512   -1.791323   -0.441508
C       1.803468   -1.443558    0.917423
C       3.076570   -0.729337    1.093745
C       4.125966   -0.157470    1.230323
C       0.550685   -0.614940    1.301345
C       0.646993    0.181697    2.599350
H       1.745763    1.764235    0.195456
H       0.473852    2.104957   -0.984177
H       0.125174    2.230767    0.741183
H      -0.819384    0.133365   -0.206876
H       0.382035   -1.003526   -1.894750
H       1.825738   -0.035867   -1.526460
H       1.848885   -2.382862    1.479030
H       5.057623    0.338569    1.349839
H      -0.246309   -1.358521    1.412201
H       1.465848    0.904432    2.574624
H      -0.283831    0.723755    2.793983
H       0.821283   -0.487007    3.448995
