15

N      -0.036995    1.227802   -0.028412
C      -0.032492   -0.025760   -0.011580
O       1.050920   -0.877402   -0.019662
C       0.411771   -2.187025    0.009553
C      -0.703705   -2.033218   -1.046506
C      -1.211052   -0.988152    0.022680
C      -0.664937   -2.004249    1.100655
C      -2.551978   -0.461243    0.039781
N      -3.644868   -0.087365    0.054467
H       0.913274    1.601609   -0.050616
H       1.169237   -2.965332    0.006377
H      -0.423993   -1.650892   -2.028838
H      -1.364284   -2.896963   -1.120844
H      -1.321984   -2.865351    1.222055
H      -0.350137   -1.595705    2.061582
