20

C       0.023579    1.578984   -0.019209
C      -0.025708    0.080257    0.044700
C      -1.324963   -0.747271    0.029151
C      -0.675361   -1.718673    1.030031
C      -1.313214   -2.501527    2.101668
N      -0.664373   -3.188703    0.958505
C       0.595145   -0.902575    1.079296
C       1.131006   -0.808469   -0.318812
O       1.010110   -1.859437   -1.235481
H       1.039281    1.950499    0.151534
H      -0.299517    1.940400   -1.003107
H      -0.630082    2.035717    0.732918
H      -2.174062   -0.205111    0.455274
H      -1.605124   -1.167249   -0.941842
H      -0.810425   -2.631346    3.056773
H      -2.398989   -2.508303    2.159078
H      -1.381003   -3.498648    0.305348
H       1.197153   -0.714659    1.961327
H       2.079215   -0.276481   -0.401586
H       1.001353   -2.679948   -0.728646
