23

C       0.018226    1.546823   -0.062799
C       0.015950    0.028136   -0.017211
O       0.667174   -0.459058   -1.171728
C       0.721389   -1.866714   -1.231424
C       1.441900   -2.273907   -2.509941
C       1.550957   -3.792653   -2.665516
C       2.281433   -4.198211   -3.961563
C       2.393494   -5.642457   -4.125788
C       2.472812   -6.836760   -4.236996
H       1.042979    1.927954   -0.091985
H      -0.504892    1.904489   -0.954227
H      -0.480252    1.956364    0.820919
H       0.529737   -0.332437    0.890698
H      -1.017818   -0.356032    0.027756
H       1.249606   -2.269636   -0.348999
H      -0.297624   -2.292550   -1.213618
H       0.906173   -1.842845   -3.364706
H       2.440815   -1.820478   -2.506952
H       2.084220   -4.223316   -1.809704
H       0.552393   -4.245562   -2.666167
H       1.754307   -3.772280   -4.825545
H       3.284165   -3.750746   -3.970052
H       2.549833   -7.889784   -4.346001
