16

N       0.017119   -1.081065    0.302705
C      -0.042670    0.068339    0.169928
C      -0.067124    1.480261    0.001960
C      -1.173849    2.238426   -0.045987
C      -0.868194    3.698919   -0.248084
C       0.663710    3.756358   -0.153015
O       1.131569    3.980936    1.194666
C       1.841803    2.723509    1.217263
C       1.198642    2.299109   -0.123096
H      -2.181634    1.849148    0.040202
H      -1.246011    4.054319   -1.215927
H      -1.318538    4.333747    0.523884
H       1.125700    4.453368   -0.859707
H       2.928185    2.868389    1.164455
H       1.596251    2.122370    2.099054
H       1.874554    1.947439   -0.903858
