23

C      -0.050440    1.555394   -0.132264
C       0.014262    0.057387    0.177557
O       0.654652   -0.179060    1.431752
C      -1.355583   -0.587443    0.108984
C      -1.867870   -1.185500   -1.182542
C      -1.544002   -2.083702   -0.012380
C      -0.397432   -3.044596   -0.054356
C      -0.089939   -3.908051    1.141620
C      -0.663148   -4.530706   -0.108192
H       0.945888    2.000392   -0.064584
H      -0.450858    1.734022   -1.135323
H      -0.703257    2.069783    0.584163
H       0.675186   -0.421550   -0.553673
H       0.066132    0.141667    2.123781
H      -2.099635   -0.071145    0.715678
H      -2.904262   -1.028703   -1.461073
H      -1.182577   -1.204013   -2.025327
H      -2.405857   -2.475162    0.524564
H       0.463991   -2.704051   -0.620521
H       0.948926   -4.096828    1.387444
H      -0.739093   -3.818412    2.006586
H      -1.697424   -4.859110   -0.083688
H      -0.017818   -5.149939   -0.721719
