23

C       0.001664    1.565352   -0.022335
C       1.552794    1.784994   -0.034904
C       2.001337    0.316746    0.017560
C       1.060203   -0.369581   -1.020275
C       1.299623   -1.875835   -1.169162
C       0.938434   -2.620338    0.128093
C       1.306992   -1.783101    1.365345
C       1.066335   -0.291702    1.108181
C      -0.028596    0.029123    0.033935
H      -0.481361    2.022851    0.846515
H      -0.486520    1.958253   -0.919454
H       1.898279    2.295171   -0.939341
H       1.903437    2.359873    0.827770
H       3.075421    0.112470    0.021953
H       0.991001    0.120979   -1.998189
H       0.707161   -2.273703   -2.001247
H       2.351702   -2.044698   -1.435053
H      -0.143325   -2.795015    0.137628
H       1.407926   -3.608573    0.162887
H       0.719525   -2.119017    2.227734
H       2.360657   -1.932249    1.636690
H       1.002638    0.269023    2.048012
H      -1.011677   -0.446326    0.054155
