19

C      -0.032667    1.571899    0.005988
C      -0.115570    0.048318   -0.106036
C       0.786822   -0.516733   -1.217859
C       0.756697   -2.007560   -1.292306
C       0.320288   -2.812898   -2.284420
O       0.486713   -4.128791   -1.875843
C       1.022696   -4.014945   -0.643240
N       1.238188   -5.183395    0.044300
N       1.215460   -2.800510   -0.231706
H       0.989572    1.897713    0.229297
H      -0.336403    2.058265   -0.928201
H      -0.682553    1.947900    0.802328
H       0.170525   -0.416604    0.843573
H      -1.151288   -0.257370   -0.299011
H       0.489707   -0.099978   -2.187600
H       1.819221   -0.188925   -1.036582
H      -0.094964   -2.669377   -3.265907
H       1.451027   -5.981598   -0.535905
H       1.872928   -5.068564    0.820352
