19

O       0.114276   -0.030383   -0.405687
C       0.016151    1.132783   -0.084925
C      -1.353713    1.683517    0.334514
C      -1.449011    2.759357    1.389246
C      -0.526012    3.653668    1.746395
C       0.860116    3.772683    1.171514
C       0.919098    3.552591   -0.370339
C       1.224619    2.047945   -0.121276
C       1.689340    2.456468    1.317963
H      -1.823955    2.048136   -0.593963
H      -1.948487    0.812801    0.625988
H      -2.410168    2.789213    1.897610
H      -0.780118    4.355421    2.536922
H       1.342793    4.679289    1.541463
H       0.030973    3.813073   -0.950770
H       1.786692    4.049526   -0.811245
H       1.974655    1.568662   -0.751627
H       2.765357    2.647898    1.326542
H       1.434793    1.792888    2.146695
