18

C      -0.738159    1.860117   -0.755810
C      -0.181498    0.547866   -0.188215
C      -1.306170   -0.296381    0.425433
O      -0.716789   -1.393192    1.123249
C       0.587107   -0.218609   -1.227091
C       1.049521    0.085006   -2.490053
N       1.712830   -0.992525   -2.996173
N       1.690010   -1.954609   -2.117633
N       1.019570   -1.492237   -1.048484
H       0.066783    2.486318   -1.148591
H      -1.445379    1.670951   -1.569823
H      -1.255412    2.427973    0.022852
H       0.500483    0.790402    0.639260
H      -1.888233    0.329557    1.116901
H      -1.981641   -0.648828   -0.367940
H      -1.419712   -1.969628    1.437145
H       0.946491    0.996576   -3.055390
H       0.827055   -2.075369   -0.247167
