14

C      -0.044917    1.310086    0.062745
O       0.046011   -0.115591   -0.067206
C       0.662572   -0.545769   -1.157984
N       1.160514    0.173350   -2.062764
N       0.681354   -1.983086   -1.159376
N       1.248052   -2.666361   -2.154347
C       1.044612   -3.910187   -1.764338
N       0.381300   -3.987837   -0.579954
N       0.155848   -2.761575   -0.205671
H       0.953238    1.753439    0.090848
H      -0.598297    1.733740   -0.778654
H      -0.572607    1.478944    1.000533
H       1.578139   -0.396144   -2.795374
H       1.370923   -4.769607   -2.326849
