19

C       0.025814    1.525314    0.140408
C       0.115501    0.032351   -0.000676
O      -0.783150   -0.763929    0.795840
C       0.626368   -0.901827    1.008334
C       1.216343   -2.085749    0.279360
O       0.752892   -1.972149   -1.061795
C       0.380997   -0.618121   -1.351793
C      -0.813530   -0.684890   -2.298237
O      -0.506946   -1.430634   -3.459494
H       0.931351    2.006676   -0.242963
H      -0.827559    1.920269   -0.420964
H      -0.102876    1.802305    1.189251
H       1.004484   -0.593224    1.979719
H       2.316307   -2.046244    0.333440
H       0.881747   -3.051773    0.671681
H       1.216644   -0.097043   -1.847402
H      -1.665562   -1.110604   -1.748937
H      -1.085255    0.322872   -2.631059
H      -0.164503   -2.276070   -3.146229
