15

O       0.000900    0.026341   -0.031344
C      -0.013067    1.213904    0.087358
C      -1.082643    2.326160    0.002899
C      -1.215349    3.003134    1.368576
O      -0.004588    2.881909    2.106257
C       1.179587    3.034965    1.332231
C       1.023557    2.354125   -0.029050
N      -0.051337    3.119541   -0.767816
H      -2.038778    2.146208   -0.491117
H      -1.486873    4.057590    1.212787
H      -1.986250    2.519875    1.975922
H       1.418146    4.096199    1.168688
H       1.981126    2.572613    1.915720
H       1.968711    2.199416   -0.551903
H      -0.061887    2.807247   -1.737719
