18

C      -0.680823    1.253239    0.254289
C      -0.070346   -0.125126    0.128811
C       1.338212   -0.282422   -0.376707
C       1.021164   -0.618698    1.061168
N       1.522029    0.222658    2.125293
C       0.642605    0.517247    3.182507
O       0.895297    1.154036    4.165608
C       2.891322    0.540484    2.152950
O       3.453655    1.189813    2.989060
H       0.054679    1.992158    0.583649
H      -1.071735    1.582818   -0.713661
H      -1.510943    1.263894    0.968262
H      -0.769994   -0.900897   -0.169377
H       1.587395   -1.099964   -1.043054
H       1.891776    0.631800   -0.563277
H       0.994975   -1.676427    1.310913
H      -0.348760    0.065052    2.984961
H       3.401158    0.100299    1.275575
