14

C       0.137529   -1.226890   -0.049269
C       0.048230   -0.029961   -0.010427
C      -0.095074    1.420862    0.035773
C      -0.663563    1.949490    1.375289
O       0.514297    2.258680    2.115226
C       1.416633    2.749267    1.170087
O       1.197558    2.058817   -0.040550
C       1.226617    4.216032    0.952725
N       1.083503    5.351255    0.795905
H       0.223719   -2.285234   -0.086206
H      -0.695874    1.766268   -0.811865
H      -1.269026    2.849876    1.210821
H      -1.233043    1.207721    1.932831
H       2.434847    2.565972    1.525659
