17

C      -0.088707    1.565699    0.017461
C       0.088011    0.037391    0.030485
C       0.757189   -0.484865   -1.212459
C       2.018972   -0.952879   -1.199310
O       2.680621   -1.428062   -2.285325
C       2.026353   -1.438057   -3.465773
C       0.763115   -1.008961   -3.616150
C       0.001111   -0.486961   -2.481295
O      -1.155773   -0.092266   -2.565925
H       0.879508    2.073787   -0.038325
H      -0.690623    1.868631   -0.841688
H      -0.595222    1.899256    0.928199
H       0.660943   -0.267191    0.913666
H      -0.900165   -0.429999    0.102959
H       2.646309   -1.003363   -0.317196
H       2.651543   -1.834637   -4.256193
H       0.288241   -1.044933   -4.588840
