19

C      -0.056502    1.462558   -0.090099
C      -0.057729    0.007782   -0.104938
C      -0.054782   -1.197218   -0.106622
C      -0.046570   -2.632593   -0.139221
O      -0.261307   -3.336352    1.110130
C      -1.261522   -3.430318    0.123360
C      -2.700080   -2.931822    0.252138
C      -3.098476   -4.024723   -0.787465
C      -1.716032   -4.714905   -0.573455
H       0.947763    1.861716   -0.269401
H      -0.719998    1.870000   -0.860927
H      -0.398513    1.844807    0.877871
H       0.727025   -3.085311   -0.759765
H      -3.103749   -3.133960    1.248516
H      -2.884773   -1.885897   -0.002028
H      -3.981502   -4.621702   -0.555185
H      -3.205200   -3.616768   -1.794959
H      -1.160217   -5.039159   -1.456508
H      -1.771659   -5.547215    0.134746
