23

C       0.005043    1.558987    0.141588
C      -0.023798    0.026414    0.011793
C      -1.480042   -0.458767    0.032430
O      -2.040248   -0.095395    1.291409
C       0.725874   -0.500092   -1.238623
C       0.778567   -2.040597   -1.286014
O       0.030866   -0.005009   -2.384858
C       2.165507    0.043806   -1.289527
O       2.711771   -0.357697   -2.547985
H       0.987131    1.934348    0.442604
H      -0.266084    2.023336   -0.811142
H      -0.713939    1.870017    0.901715
H       0.464127   -0.412916    0.892160
H      -2.027221    0.004866   -0.799978
H      -1.527598   -1.547262   -0.100731
H      -2.982818   -0.280308    1.259815
H      -0.207802   -2.455093   -1.500213
H       1.459658   -2.363227   -2.077369
H       1.136126   -2.457089   -0.338005
H       0.649519   -0.097396   -3.120876
H       2.153286    1.135689   -1.216834
H       2.758128   -0.358812   -0.454616
H       3.476433    0.191859   -2.737469
