13

O      -0.202989    1.413205    0.115968
C       0.023769    0.038493   -0.017756
C       0.841673   -0.271076   -1.293900
C       0.115390    0.201764   -2.539700
O      -0.139089   -0.509124   -3.477095
C       0.751778   -0.499996    1.199676
O       1.080591    0.225915    2.105639
H       0.186972    1.661766    0.969897
H      -0.935437   -0.505812   -0.081919
H       1.794257    0.270592   -1.223480
H       1.041521   -1.342255   -1.392605
H      -0.173613    1.272810   -2.522985
H       0.969092   -1.586776    1.207406
