15

N       0.128153    1.395217    0.093528
C      -0.012958   -0.020553    0.059361
C      -0.514063   -0.772212    1.235650
N      -1.530713    0.039681    1.924602
C      -2.446390   -0.079531    0.741367
C      -1.355254   -0.798791   -0.065222
C      -1.563644   -1.817959   -1.029229
N      -1.730420   -2.647489   -1.821815
H      -0.162073    1.835798   -0.771850
H      -0.411235    1.779169    0.863452
H       0.771793   -0.541109   -0.484620
H       0.025196   -1.570084    1.732463
H      -1.910395   -0.444288    2.729522
H      -3.306845   -0.724907    0.931698
H      -2.789981    0.882980    0.347999
