21

C       0.236300    1.551962   -0.043029
C       0.021924    0.052423    0.028848
O      -1.310930   -0.260336    0.546194
C      -0.765408   -1.015417    1.645033
C       0.683058   -0.754725    1.189998
C       1.508397   -1.903051    0.574672
C       1.243779   -1.871422   -0.930557
C      -0.161069   -2.070629   -1.427559
C       0.374442   -0.670917   -1.266744
H       1.259724    1.781674   -0.359566
H      -0.453548    1.999619   -0.766252
H       0.058012    2.018009    0.930070
H      -1.041132   -0.578254    2.612882
H      -1.086814   -2.065820    1.630189
H       1.265244   -0.162677    1.898525
H       2.575349   -1.738194    0.758577
H       1.259346   -2.872200    1.023746
H       2.055488   -2.160828   -1.589629
H      -0.282753   -2.440444   -2.439875
H      -0.937742   -2.390686   -0.742586
H       0.553285   -0.073218   -2.153891
