19

O      -0.040849    1.423725   -0.117850
C      -0.041221    0.037524    0.008611
C      -1.367656   -0.717025    0.089885
C      -2.674994    0.049634    0.078309
O      -3.589109   -0.383653   -0.925007
C      -3.340324    0.157265   -2.203324
C      -2.097211   -0.395585   -2.896694
O      -0.882134    0.011698   -2.265138
C      -0.514143   -0.767768   -1.164043
H      -0.222141    1.608905   -1.049590
H       0.791967   -0.328322    0.601624
H      -1.362724   -1.628166    0.681125
H      -3.190503   -0.097781    1.031506
H      -2.474237    1.123871   -0.030046
H      -4.216821   -0.083304   -2.817087
H      -3.255532    1.255742   -2.148832
H      -2.146587   -1.491463   -2.942937
H      -2.053673   -0.005730   -3.920170
H      -0.020622   -1.703148   -1.425357
