19

O       0.187313    0.198590    1.032373
C      -0.299070    0.160093   -0.299655
C      -1.649834   -0.533464   -0.394846
C      -1.864105   -1.647031   -1.421346
C      -1.698063   -1.963419    0.023161
O      -0.500997   -2.615276    0.524107
C      -1.316973   -3.388200    1.421484
C      -2.048765   -2.507534    2.384818
C      -2.590721   -2.711025    0.980206
H       0.340525   -0.725845    1.268655
H      -0.380710    1.199489   -0.632617
H       0.419173   -0.340079   -0.966130
H      -2.510576    0.074707   -0.130524
H      -2.846516   -1.769955   -1.865941
H      -1.033986   -1.881665   -2.080475
H      -1.044900   -4.425165    1.573754
H      -2.596372   -3.024685    3.166593
H      -1.623407   -1.547780    2.665114
H      -3.567658   -3.116991    0.757344
