18

C       0.135658    1.457773   -0.395487
C      -0.018144    0.111267    0.335019
C      -1.380518   -0.410617    0.293384
C      -2.513892   -0.814667    0.253279
C      -3.883861   -1.337881    0.191910
C      -3.900282   -2.832304   -0.218107
C      -4.597180   -1.133447    1.458561
C      -5.198461   -0.990493    2.488553
H       1.170331    1.808367   -0.335567
H      -0.134905    1.360815   -1.450456
H      -0.512554    2.217095    0.050101
H       0.667387   -0.624733   -0.104508
H       0.293410    0.224207    1.381355
H      -4.425311   -0.778200   -0.585075
H      -4.930505   -3.189060   -0.294782
H      -3.403775   -2.957552   -1.183500
H      -3.375072   -3.434221    0.526694
H      -5.722500   -0.852474    3.401612
