19

C      -0.062339    1.426816    0.171150
C       1.485869    1.379737   -0.027323
O       2.192023    0.585707    0.961053
C       2.331868   -0.556633    0.049033
C       1.889630   -1.917575    0.612901
C       0.482216   -2.341875    0.085893
C      -0.445816   -1.159724    0.236773
C      -0.033535   -0.015841   -0.299553
C       1.354115    0.125197   -0.921607
H      -0.456304    1.631197    1.169976
H      -0.491448    2.135646   -0.548110
H       2.018453    2.300695   -0.278582
H       3.367687   -0.594040   -0.311252
H       2.628141   -2.687107    0.362393
H       1.864419   -1.837499    1.704552
H       0.576867   -2.645504   -0.964277
H       0.121600   -3.217385    0.632304
H      -1.275972   -1.203922    0.936280
H       1.491024    0.088866   -2.001366
