21

C       0.036421    1.583154   -0.046824
C      -0.011486    0.075791    0.054333
C       0.927306   -0.724509   -0.918890
C       1.815982   -1.191388    0.283306
C       0.691200   -0.745051    1.195866
O       0.805084   -0.307125    2.542672
C      -0.497126   -0.873178    2.856071
C      -0.641196   -1.494357    1.446154
C      -1.361880   -0.630753    0.372996
H       1.067292    1.948142   -0.116482
H      -0.501675    1.938481   -0.934442
H      -0.421098    2.051373    0.831431
H       0.425500   -1.546753   -1.435148
H       1.439154   -0.110263   -1.662446
H       2.132868   -2.237298    0.325904
H       2.696995   -0.551865    0.398735
H      -0.423919   -1.589026    3.682184
H      -1.231184   -0.099019    3.112818
H      -0.742259   -2.579545    1.407016
H      -2.132047    0.032352    0.781558
H      -1.801588   -1.192212   -0.456863
