15

O      -0.697742    0.723801    0.511105
C       0.209122    0.890932   -0.257748
C       1.348917    1.886764   -0.020893
C       1.396303    2.761421   -1.189737
N       1.364970    3.429541   -2.133140
C       1.611748    2.479219    1.389634
C       2.080091    1.056199    1.763207
N       2.727452    1.244037    0.369377
C       3.065866    2.658679    0.898419
H       0.284252    0.342507   -1.219379
H       0.968915    3.169448    1.940000
H       2.828489    0.972360    2.552408
H       1.347159    0.254288    1.823666
H       3.275309    3.386967    0.113590
H       3.855006    2.641108    1.651823
