23

C       0.042455    1.379532    0.399866
C       0.035923   -0.142278    0.165056
C       0.794111   -0.842721    1.306592
C      -1.428254   -0.624064    0.160393
C       0.669407   -0.490258   -1.232676
C       2.131341   -0.044892   -1.461131
O       2.167426    1.362691   -1.644053
C       0.589557   -1.923981   -1.520732
C       0.567043   -3.102499   -1.760657
H       1.054602    1.782978    0.445162
H      -0.483413    1.907252   -0.402809
H      -0.467810    1.607689    1.342236
H       0.286634   -0.663213    2.260193
H       0.842461   -1.924006    1.147356
H       1.816954   -0.466460    1.409756
H      -1.995658   -0.150636   -0.648988
H      -1.496534   -1.707280    0.030591
H      -1.915917   -0.361393    1.104975
H       0.077959    0.041529   -1.991680
H       2.757689   -0.360501   -0.614527
H       2.505210   -0.562348   -2.355274
H       3.077325    1.614805   -1.826464
H       0.528707   -4.141132   -1.978260
