18

C      -0.479942    1.986143   -0.578668
C      -0.169275    0.591468   -0.076346
O      -1.444708   -0.055817    0.200882
C      -1.487488   -0.990345    1.164220
C      -2.902648   -1.456150    1.396593
O      -0.515967   -1.397993    1.762434
C       0.603994   -0.239659   -1.129174
N       1.151322   -1.378636   -0.633301
O       0.712929    0.122945   -2.283806
H       0.451307    2.530598   -0.752865
H      -1.020322    1.936756   -1.525358
H      -1.075837    2.528866    0.159288
H       0.398424    0.609686    0.858299
H      -3.333078   -1.821056    0.460047
H      -2.907842   -2.246183    2.146187
H      -3.520085   -0.618121    1.732297
H       0.953192   -1.671724    0.312697
H       1.607155   -2.006038   -1.275809
