21

C       0.118869    1.501285    0.095777
C       0.039251    0.005272   -0.022449
C      -0.059450   -0.649920   -1.182678
C      -0.054580   -2.155563   -1.292857
C       0.756250   -2.778103   -0.144461
C       0.248233   -2.287907    1.212765
C       1.321412   -2.007874    2.286754
O       1.217741   -0.581649    2.088812
C       0.027346   -0.759024    1.266857
H       1.026255    1.792068    0.637622
H       0.130742    1.982780   -0.885758
H      -0.728872    1.902333    0.666497
H      -0.118804   -0.081748   -2.109164
H      -1.081473   -2.550615   -1.292846
H       0.375156   -2.452591   -2.256189
H       0.729431   -3.872057   -0.192961
H       1.802703   -2.475936   -0.269150
H      -0.607592   -2.879288    1.547508
H       1.035850   -2.297602    3.307305
H       2.332274   -2.379576    2.079622
H      -0.862778   -0.475831    1.852313
