19

C       0.137733    1.597481    0.239211
C      -0.017049    0.095379    0.143540
C       1.142609   -0.769774   -0.350032
C       0.717568   -0.807393    1.074834
O       1.573015   -0.267279    2.119187
C       1.165315   -1.241182    3.001875
O       1.486338   -1.370499    4.138803
C       0.248962   -1.938642    1.987199
C      -1.225222   -2.044146    2.357833
H       1.133207    1.864992    0.603286
H      -0.009274    2.068679   -0.737928
H      -0.593179    2.024953    0.933467
H      -1.009025   -0.248061   -0.142504
H       0.933327   -1.628249   -0.980119
H       2.076903   -0.262167   -0.568404
H       0.654516   -2.914422    1.701355
H      -1.635057   -1.069145    2.636508
H      -1.811561   -2.435205    1.520609
H      -1.352418   -2.722200    3.206267
