16

O      -0.032193    1.397488    0.049019
C      -0.092044    0.003548    0.069593
C      -0.461427   -0.809407    1.285890
C      -1.526184   -0.111966    2.086919
C      -2.858554   -0.849722    2.031473
C      -2.420387   -0.067211    0.834537
O      -3.106925    1.000701    0.258787
C      -1.374977   -0.770251    0.018802
H      -0.935525    1.733342    0.014978
H       0.717362   -0.427731   -0.516092
H       0.132556   -1.654714    1.616854
H      -1.354747    0.680901    2.805409
H      -2.903780   -1.936319    2.017889
H      -3.646644   -0.384953    2.621843
H      -3.837048    1.257101    0.830722
H      -1.569430   -1.555514   -0.703626
