14

N      -0.078595    1.291982   -0.311221
C      -0.024239    0.056552   -0.032439
N       1.153833   -0.678415    0.148815
C       1.291023   -2.015697    0.452067
O       2.374984   -2.535385    0.584065
C       0.004933   -2.805462    0.612222
N      -1.205608   -2.036677    0.422892
C      -1.333569   -0.710249    0.122505
O      -2.407445   -0.171708   -0.013237
H       0.852442    1.707222   -0.392130
H       2.035054   -0.187228    0.050276
H       0.060911   -3.636961   -0.101699
H       0.037578   -3.251043    1.614506
H      -2.089997   -2.515273    0.518715
