16

C       0.187517    1.365932    0.065749
O      -0.167204    0.011360    0.269014
C       0.645698   -0.652664    1.190414
C       0.180572   -2.106790    1.294616
C       1.151845   -2.557439    0.295307
C       1.974566   -1.246233    0.591393
C       2.473964   -2.040949    1.785728
O       3.448316   -2.082498    2.465379
N       1.337171   -2.966752    1.751760
H       1.191513    1.467505   -0.370089
H      -0.543028    1.785366   -0.628703
H       0.156571    1.935058    1.006393
H       0.754786   -0.066795    2.116064
H      -0.809740   -2.473197    1.531082
H       1.157263   -3.284945   -0.501466
H       2.623779   -0.670183   -0.061220
