19

C      -0.104821    1.579357    0.063054
C       1.432515    1.430132   -0.021598
O       1.738003    0.810493    1.245836
C       0.813943   -0.291552    1.258006
O       1.483930   -1.521502    1.187677
C       2.569889   -1.508357    0.260101
C       2.169053   -0.937187   -1.109272
C       1.190765    0.226568   -0.984547
C      -0.010874    0.028984   -0.003581
H      -0.495518    2.042121    0.972030
H      -0.564058    2.011313   -0.828582
H       2.129419    2.245007   -0.211280
H       0.253307   -0.301899    2.196476
H       3.397620   -0.929063    0.682479
H       2.889181   -2.549845    0.171250
H       3.071615   -0.639385   -1.656271
H       1.679865   -1.717011   -1.706111
H       0.852070    0.577737   -1.962453
H      -0.854524   -0.625333   -0.217024
