17

N      -0.082240    1.292274   -0.147927
C      -0.030291    0.026254   -0.039057
O       1.199090   -0.607621    0.078301
C       1.262230   -1.939596    0.611736
C       0.296317   -2.806681   -0.174004
C      -0.483173   -4.035102    0.398252
N      -1.735766   -3.324866    0.009994
C      -1.045275   -2.128408   -0.137155
C      -1.231639   -0.809201   -0.028157
H       0.860149    1.681316   -0.081420
H       2.308363   -2.239689    0.514063
H       0.995860   -1.930830    1.677835
H       0.664566   -2.988939   -1.187066
H      -0.339454   -4.998594   -0.096104
H      -0.366590   -4.150631    1.482313
H      -2.593041   -3.393521    0.543757
H      -2.184775   -0.317128    0.109627
