15

N      -0.417479    0.934730    0.787032
C      -0.576741   -0.058665    0.028813
O      -0.400009   -1.308783    0.514319
C      -0.797576   -2.382277   -0.332359
C      -2.248936   -2.710281   -0.158350
C      -3.102828   -2.270163    0.804402
O      -4.322839   -2.797413    0.629276
N      -4.303273   -3.627772   -0.483517
C      -3.076905   -3.567965   -0.938906
H      -0.551558    1.798403    0.265585
H      -0.839165   -0.038757   -1.038262
H      -0.573987   -2.147174   -1.382866
H      -0.163454   -3.228549   -0.049245
H      -2.983298   -1.600401    1.640862
H      -2.817406   -4.141513   -1.818208
