16

N      -0.026970    0.865522    1.076317
C       0.044217    0.080846    0.084356
C      -1.195863   -0.398070   -0.639285
C      -1.102548   -1.884449   -0.950643
N      -0.920960   -2.245496   -2.366495
C       0.224141   -2.336428   -1.438927
C       1.244692   -1.222459   -1.548690
O       1.241676   -0.386606   -0.375063
H       0.912468    1.083409    1.416463
H      -2.058477   -0.146628   -0.022616
H      -1.291574    0.145752   -1.586567
H      -1.673859   -2.556412   -0.317332
H      -1.295845   -3.175466   -2.536847
H       0.586044   -3.319105   -1.152928
H       2.267180   -1.598257   -1.617558
H       1.033078   -0.619007   -2.438295
