17

C       0.020659    1.494006    0.042119
C       0.011227   -0.021571    0.003080
O       0.692741   -0.489056    1.180192
C       0.781632   -1.813559    1.321888
N       0.284254   -2.657965    0.444526
O       0.600162   -3.933055    0.981757
C       1.258876   -3.769323    2.137230
N       1.577560   -4.924890    2.808334
C       1.418680   -2.445336    2.425425
H       1.045075    1.876973    0.050044
H      -0.490193    1.891165   -0.839973
H      -0.492403    1.863587    0.934459
H      -1.007679   -0.424807   -0.003019
H       0.522907   -0.411539   -0.884085
H       1.624290   -5.741760    2.215458
H       2.367116   -4.848560    3.431337
H       1.894051   -1.984758    3.273023
