19

C      -0.061144    1.550608    0.177718
C       0.007981    0.029434    0.054030
C      -1.407089   -0.587732   -0.039983
C      -1.411051   -2.032443   -0.223517
C      -1.437607   -3.224298   -0.375941
O       0.779976   -0.294045   -1.095877
C       1.789959   -1.222967   -0.716285
C       1.972716   -0.927510    0.770666
O       0.666695   -0.543011    1.175480
H       0.947369    1.953178    0.297532
H      -0.502806    1.987139   -0.722212
H      -0.661188    1.838776    1.045004
H      -1.950249   -0.327896    0.876173
H      -1.931898   -0.105088   -0.872441
H      -1.463035   -4.277360   -0.508290
H       1.451639   -2.252438   -0.882174
H       2.683355   -1.028622   -1.316056
H       2.276156   -1.795720    1.360785
H       2.693707   -0.112995    0.933952
