21

C      -0.052679    1.491944   -0.395887
C      -0.010070    0.159340    0.362144
C      -1.357008   -0.522009    0.381052
O      -1.784414   -1.153734   -0.838234
C      -1.553305   -1.974308    0.311550
C      -0.456724   -3.039045    0.229839
C      -1.108767   -4.243390    0.933601
O      -2.510532   -4.069928    0.767151
C      -2.758929   -2.683353    0.928714
H       0.930705    1.970756   -0.407389
H      -0.367906    1.332956   -1.431332
H      -0.759545    2.189058    0.067082
H       0.725728   -0.507078   -0.099155
H       0.312669    0.326525    1.398410
H      -2.147914    0.062279    0.861906
H      -0.257162   -3.254377   -0.823316
H       0.480865   -2.734287    0.700758
H      -0.835792   -5.208524    0.501250
H      -0.847018   -4.256072    2.004843
H      -2.851549   -2.427153    1.998299
H      -3.689633   -2.425445    0.418232
