20

C      -0.108850    1.545808    0.034529
C      -0.029780    0.044949    0.020798
C      -0.046128   -0.662621   -1.109650
C       0.054592   -2.172595   -1.185642
C       1.350438   -2.705834   -0.574598
O       2.215841   -3.205281   -1.252990
C       1.474367   -2.657221    0.952528
N       1.405883   -1.310170    1.518776
C       0.109579   -0.638872    1.372104
H       0.787744    1.976809    0.498804
H      -0.204374    1.958642   -0.973096
H      -0.965124    1.892864    0.627800
H      -0.105222   -0.141789   -2.061506
H      -0.789867   -2.634221   -0.653234
H       0.022955   -2.509484   -2.223038
H       0.679222   -3.324502    1.348084
H       2.441525   -3.097368    1.205257
H       1.635837   -1.376454    2.503996
H       0.038293    0.113021    2.163249
H      -0.738106   -1.336638    1.522889
