21

C       0.000711    1.549507   -0.014642
C       1.551518    1.779052   -0.019326
C       2.012639    0.317232    0.010568
C       1.075336   -0.378841   -1.028184
C       1.323043   -1.888892   -1.106354
C       0.969872   -2.525819    0.244120
O       1.310998   -1.679618    1.334415
C       1.068646   -0.312281    1.081745
C      -0.028213    0.014444    0.013606
H      -0.487700    1.990739    0.859483
H      -0.486824    1.953162   -0.906767
H       1.894892    2.306565   -0.913975
H       1.894710    2.343078    0.853406
H       3.083746    0.109313    0.029821
H       1.011604    0.081556   -2.019903
H       0.709581   -2.347636   -1.890488
H       2.371342   -2.075631   -1.369409
H      -0.109005   -2.740948    0.272955
H       1.496729   -3.470387    0.406379
H       1.002924    0.178283    2.057875
H      -1.008665   -0.463802    0.030330
