17

O      -0.056126    0.143927   -0.586143
C       0.012425    1.316988   -0.277248
C       1.335278    1.988031    0.050341
C       2.525041    1.034307   -0.136291
C       3.795863    1.672590    0.194795
N       4.792756    2.193176    0.459977
C      -1.211167    2.170769   -0.199142
C      -2.154289    2.081964   -1.364606
N      -2.507515    1.486475   -0.086699
H       1.444311    2.882714   -0.575037
H       1.290858    2.356982    1.082827
H       2.391011    0.145760    0.487774
H       2.559923    0.675357   -1.169497
H      -1.124953    3.109879    0.339333
H      -2.717555    2.967825   -1.642742
H      -1.861507    1.429471   -2.182434
H      -2.316296    0.484544   -0.130328
