16

C      -0.338740    1.141120   -0.127914
C       1.128839    1.066928    0.252272
C       0.352442   -0.181367    0.001992
O       0.091638   -0.966204    1.150931
C      -0.912971   -1.844866    1.048062
N      -1.631359   -2.004009   -0.040821
O      -2.542713   -3.017127    0.279757
C      -2.327863   -3.412802    1.542206
C      -1.309426   -2.719370    2.102816
H      -1.038738    1.407893    0.655195
H      -0.614518    1.477064   -1.120793
H       1.880057    1.357273   -0.473098
H       1.383330    1.282604    1.283714
H       0.535862   -0.776044   -0.886652
H      -2.976733   -4.195385    1.904915
H      -0.892810   -2.798482    3.091776
