20

C       0.054118    1.570498    0.013906
C       0.062651    0.039170   -0.033977
C       0.727481   -0.519197   -1.303787
C       0.762572   -2.052933   -1.326207
C       1.451158   -2.606112   -0.094893
N       2.601135   -1.835216    0.379048
C       1.352083   -1.858185    1.192164
C       0.608260   -0.555013    1.270706
O       0.388615   -0.044282    2.346983
H       1.074426    1.964991   -0.039657
H      -0.511106    1.980501   -0.828443
H      -0.393905    1.919702    0.945824
H      -0.986075   -0.305429   -0.034428
H       0.184169   -0.150896   -2.180685
H       1.749831   -0.136412   -1.375924
H      -0.257796   -2.456809   -1.369378
H       1.279989   -2.405000   -2.226514
H       1.501990   -3.690535   -0.018389
H       3.285942   -2.440348    0.823868
H       1.374987   -2.399225    2.133638
