19

C      -0.185235    1.517598   -0.058522
C      -0.017129    0.031846    0.016066
C       0.196425   -0.827741   -1.013026
O       0.299976   -2.113807   -0.562607
C       0.148616   -2.077285    0.792203
C      -0.047603   -0.792302    1.196859
C       0.221303   -3.352467    1.514049
C      -0.322299   -4.628650    0.899446
C       1.160771   -4.453603    1.059423
H       0.581042    2.038037    0.527371
H      -0.113679    1.872607   -1.090439
H      -1.158528    1.831639    0.335702
H       0.296344   -0.695206   -2.077901
H      -0.197082   -0.462132    2.213762
H       0.092108   -3.236326    2.584475
H      -0.838699   -5.321753    1.554126
H      -0.733343   -4.552964   -0.100409
H       1.744235   -4.260553    0.166847
H       1.673228   -5.025283    1.825085
