17

N      -0.140970    1.264975   -0.274194
C       0.074755   -0.145620   -0.011815
C       0.933395   -0.454812    1.212372
O       1.452035    0.370459    1.919634
O       1.040315   -1.786118    1.405144
C       1.853097   -2.208749    2.521477
C       1.781900   -3.724316    2.550858
O       2.306605   -4.307602    1.375251
H      -0.591953    1.688012    0.532388
H       0.760248    1.730450   -0.339529
H      -0.887469   -0.656103    0.110637
H       0.550076   -0.617741   -0.880376
H       2.879161   -1.862460    2.366049
H       1.469400   -1.763284    3.444591
H       2.386993   -4.092478    3.385776
H       0.740622   -4.035989    2.729168
H       1.814719   -3.931112    0.637305
