20

C       0.164263    1.562968    0.090289
C      -0.012629    0.080627   -0.043233
C      -0.948994   -0.740681    0.779639
N       0.481020   -0.973348    0.959373
C       0.935289   -1.870980   -0.186367
C       2.465432   -1.915468   -0.187990
C       0.346353   -3.273872   -0.237258
C       0.467845   -0.775287   -1.180289
O       0.659036   -0.575293   -2.347016
H       1.168517    1.870366   -0.216542
H      -0.556255    2.089891   -0.544017
H       0.005397    1.879412    1.124880
H      -1.412858   -0.228923    1.618673
H      -1.579172   -1.494494    0.317231
H       2.823021   -2.523254    0.648738
H       2.827559   -2.349048   -1.124201
H       2.888776   -0.912846   -0.084116
H      -0.745325   -3.285885   -0.266076
H       0.703030   -3.787448   -1.135032
H       0.672061   -3.850004    0.635636
