19

O      -0.843104    1.077838    1.000927
C      -0.174995    1.875727    0.386400
N       1.109293    1.655581   -0.049994
C       1.815348    0.475006    0.163084
N       2.992932    0.350007   -0.280802
C       3.709309   -0.877532   -0.042667
C       3.037341   -2.210653    0.410970
C       4.040472   -2.954772   -0.511472
C       4.264109   -1.627307   -1.283961
H      -0.532251    2.884649    0.106061
H       1.594103    2.380822   -0.559868
H       1.243943   -0.263621    0.727557
H       4.545514   -0.643867    0.628829
H       3.030384   -2.451497    1.476498
H       2.016953   -2.294696    0.023453
H       4.937286   -3.264296    0.032360
H       3.664014   -3.809545   -1.076323
H       3.571027   -1.530850   -2.124808
H       5.272138   -1.379472   -1.623329
