17

C       0.024789    1.522858   -0.024628
C       1.528773    1.889861   -0.000607
N       2.110327    0.726861    0.646704
C       3.330533    0.412140    1.181666
C       3.279178   -0.917733    1.548833
C       1.987544   -1.420287    1.210749
C       1.290882   -0.373412    0.650224
C      -0.015837   -0.032075   -0.001900
H      -0.454828    1.913561    0.877495
H      -0.489294    1.951814   -0.887422
H       1.935194    2.015857   -1.013029
H       1.733951    2.806088    0.560951
H       4.115343    1.145834    1.272158
H       4.077475   -1.468082    2.024221
H       1.623122   -2.423454    1.370421
H      -0.887046   -0.410249    0.540464
H      -0.075075   -0.437452   -1.020966
