17

O      -0.703783    1.261163    0.927410
C      -0.099073    0.204037    0.175535
C       0.469146   -0.852521    1.164165
O       0.885239   -0.376531    2.409033
C      -0.870075   -1.680212    1.046134
C      -1.825374   -1.478734    2.193117
O      -2.351839   -2.379001    2.795274
C      -1.200523   -0.814447   -0.232274
O      -2.486063   -0.299533   -0.410045
H      -0.400159    2.105376    0.586249
H       0.558681    0.604178   -0.599965
H       1.295931   -1.416046    0.723528
H       0.376687    0.429588    2.571920
H      -0.755418   -2.752102    0.879782
H      -2.028673   -0.420503    2.467046
H      -0.928233   -1.365317   -1.136529
H      -2.534432    0.496412    0.136899
