16

N       0.060955   -1.107140    0.148333
C      -0.010476    0.046939    0.069654
C      -0.058584    1.459777   -0.040340
C      -1.162429    2.228538   -0.087512
C      -0.749317    3.674831   -0.028343
C      -0.164456    3.916482    1.426726
C       1.210452    3.548639    0.889108
C       0.731955    3.698030   -0.538361
C       1.157260    2.335754   -0.069688
H      -2.183030    1.876834   -0.008755
H      -1.466294    4.406017   -0.394676
H      -0.201951    4.980486    1.671016
H      -0.596184    3.331777    2.245200
H       2.160323    3.830259    1.326250
H       1.142539    4.237021   -1.382736
H       2.116726    1.932222   -0.367351
