22

C       0.429990    1.604509    0.419319
C       0.130638    0.118631    0.142016
C       0.685309   -0.742184    1.288481
C      -1.404127   -0.086185   -0.024702
C      -2.197068    0.178192    1.233549
O      -2.798975    1.198828    1.459098
N       0.715327   -0.440215   -1.096520
C       0.724914    0.313543   -2.340740
C       1.994290    0.025960   -1.612375
H       1.491234    1.766224    0.628976
H       0.137853    2.249252   -0.414855
H      -0.133352    1.944839    1.292066
H       0.309183   -0.410805    2.261179
H       0.421372   -1.793547    1.145328
H       1.777091   -0.669923    1.311944
H      -1.772878    0.583253   -0.807684
H      -1.564382   -1.123690   -0.338690
H      -2.194169   -0.649934    1.978359
H       0.453199   -0.248996   -3.230071
H       0.385132    1.346719   -2.341280
H       2.485355    0.871970   -1.137553
H       2.670479   -0.751539   -1.958021
