17

O       0.234980    1.321483    0.378090
C       0.064921   -0.036433    0.064380
C      -0.687738   -0.904531    1.046395
C      -1.358701   -0.434110   -0.222108
C       1.171651   -0.614616   -0.739221
N       1.303107   -1.929419   -0.918060
N       2.392054   -2.054687   -1.702264
C       2.960666   -0.867387   -2.016908
C       2.193169    0.101884   -1.408171
H       0.951341    1.383222    1.020249
H      -0.392268   -1.944422    1.120363
H      -0.988206   -0.428201    1.973058
H      -2.098578    0.353802   -0.138629
H      -1.523984   -1.154257   -1.014722
H       2.695285   -2.975684   -1.968663
H       3.843138   -0.806433   -2.634151
H       2.325795    1.169636   -1.445199
