22

C       0.472534    1.496203    0.115522
C       0.219080   -0.012742    0.098801
C      -1.261284   -0.402662   -0.034715
N      -1.821641    0.120829   -1.279750
C      -2.971427    0.844696   -1.351921
O      -3.716070    1.075716   -0.422865
C      -1.448833   -1.936414    0.038204
C      -2.905673   -2.358057    0.203691
O      -0.847911   -2.564662   -1.095334
H       1.540245    1.710223    0.221621
H       0.127019    1.973393   -0.806648
H      -0.050659    1.976667    0.949177
H       0.779422   -0.491255   -0.714188
H       0.597966   -0.458137    1.026316
H      -1.842254    0.061298    0.768593
H      -1.263074    0.035562   -2.115017
H      -3.163679    1.205478   -2.382774
H      -0.871355   -2.296788    0.898214
H      -3.516006   -1.996865   -0.631700
H      -2.977723   -3.448638    0.240810
H      -3.335094   -1.945972    1.121318
H      -1.483669   -2.511255   -1.817062
