17

C      -0.453662    1.563662    0.060195
C       0.002124    0.109990    0.055054
N       1.312960   -0.126520   -0.598022
C       1.750918   -1.055190    0.465822
C       0.609396   -0.520038    1.385656
C       1.008618    0.427744    2.402082
C       1.345471    1.204971    3.255290
C      -1.060314   -0.765513   -0.468881
N      -1.870246   -1.465020   -0.908275
H       0.336322    2.185402    0.483320
H      -0.657458    1.893722   -0.962633
H      -1.365698    1.686167    0.651465
H       1.270131   -0.507124   -1.537214
H       1.617940   -2.119308    0.235887
H       2.771316   -0.881171    0.814593
H      -0.021497   -1.297894    1.818781
H       1.641151    1.888751    4.012381
