18

C       0.115860    1.513955    0.092080
C      -0.036637    0.019292    0.102225
C      -1.283771   -0.637084   -0.465330
N      -1.197670   -2.030680   -0.008317
C      -0.401259   -2.109469    1.219639
C       0.399958   -3.406447    1.232797
O       0.527111   -4.114323    2.197949
C       0.502143   -0.887551    1.124634
O       1.149774   -0.753865   -0.147268
H       1.049209    1.804926    0.579478
H       0.137699    1.892434   -0.935609
H      -0.719005    1.996375    0.610591
H      -2.164461   -0.095614   -0.081850
H      -1.314511   -0.593551   -1.560882
H      -2.101114   -2.473850    0.084938
H      -0.970752   -2.049754    2.160567
H       0.861552   -3.640674    0.250716
H       1.070598   -0.563928    1.991842
