16

O       0.314284    1.410067    0.332856
C       0.013558    0.085945    0.011310
C      -1.485695   -0.168880   -0.246477
C      -1.476822   -1.361636   -1.222480
N      -0.227071   -1.158686   -1.951678
C       0.650362   -0.321739   -1.332705
N       1.776205    0.175900   -1.650964
C       0.510188   -0.842482    1.060378
N       0.869893   -1.576025    1.877896
H       1.169936    1.581778   -0.098194
H      -2.055664   -0.362798    0.661873
H      -1.879289    0.726797   -0.733880
H      -1.481514   -2.319156   -0.685679
H      -2.334661   -1.345868   -1.900448
H       0.009917   -1.675968   -2.781719
H       2.113670   -0.113770   -2.567352
