15

O      -0.072310   -0.014411    0.241664
C      -0.035770    1.173299    0.095920
N      -1.065676    2.104116    0.119600
C      -0.533661    3.350703   -0.091973
N       0.748342    3.294200   -0.263854
O       1.086808    1.920671   -0.138680
C      -1.327205    4.588080   -0.084164
C      -1.109206    5.602066    1.032946
C      -0.648928    5.908395   -0.359242
H      -2.024930    1.866056    0.302162
H      -2.346303    4.464250   -0.435930
H      -1.986559    6.107403    1.420380
H      -0.355623    5.357480    1.772277
H       0.414455    5.873858   -0.561795
H      -1.205117    6.632477   -0.942612
