18

C      -0.045488    1.571136    0.054503
C       1.484669    1.366298    0.000223
O       1.760426    0.745240    1.267522
C       0.857592   -0.394071    1.200593
C       1.696517   -1.572610    0.702831
C       2.152001   -1.069361   -0.700549
C       1.240706    0.140834   -0.941358
C      -0.015452    0.025075   -0.009287
H      -0.445604    2.059192    0.946185
H      -0.459639    2.013474   -0.854390
H       2.209256    2.157124   -0.192390
H       0.356593   -0.527876    2.161583
H       2.530389   -1.779877    1.377716
H       1.086447   -2.480708    0.628034
H       3.208187   -0.784481   -0.705835
H       2.017360   -1.832048   -1.472864
H       1.038978    0.411396   -1.977745
H      -0.883396   -0.591006   -0.242753
