20

C      -0.045237    1.535242   -0.026200
C       0.019778    0.035873    0.010018
C      -0.174726   -0.832283   -1.235530
C       0.654019   -2.091395   -1.421499
C       0.816117   -2.577863    0.025172
C       1.858399   -1.712603    0.773949
C       0.669388   -0.804626    1.122049
N      -0.313181   -1.925036    0.849639
C      -1.078706   -1.020754   -0.058872
H       0.927451    1.971579   -0.284397
H      -0.769849    1.884675   -0.769082
H      -0.343976    1.942110    0.946827
H      -0.559525   -0.303786   -2.101979
H       0.099945   -2.810327   -2.036920
H       1.625245   -1.923282   -1.898634
H       0.875482   -3.662043    0.131495
H       2.256866   -2.206181    1.663561
H       2.680824   -1.297936    0.185910
H       0.614901   -0.338790    2.111615
H      -2.161166   -0.966265   -0.045890
