22

C       0.516151    0.906101   -0.950271
C      -0.163070    0.565498    0.384749
C      -0.291317    1.815668    1.271217
C      -1.539012   -0.025834    0.125821
C      -1.778865   -1.491234   -0.221959
C      -0.648934   -2.450572   -0.284425
O       0.304650   -2.502691    0.462713
N      -2.269080   -0.878589    1.026600
C      -1.728863   -1.290807    2.320216
H       1.491316    1.372881   -0.779673
H       0.674683    0.010831   -1.558894
H      -0.089907    1.608865   -1.534763
H       0.453284   -0.175082    0.899464
H      -0.749175    1.582931    2.237013
H       0.693248    2.253979    1.462490
H      -0.907905    2.580762    0.784844
H      -2.192569    0.659494   -0.419956
H      -2.568228   -1.720307   -0.936105
H      -0.744071   -3.177781   -1.122327
H      -0.661083   -1.527047    2.326159
H      -1.932364   -0.490272    3.037829
H      -2.277360   -2.179591    2.646532
