17

O      -0.041791    1.441264    0.097151
C       0.024455    0.024425   -0.019895
C       0.921695   -0.581486    1.080799
C       0.771013   -2.072103    1.242537
C      -0.373422   -2.702058    0.977056
C      -1.556751   -1.962964    0.469603
N      -2.003924   -0.775602    1.258921
C      -1.360849   -0.585269   -0.052120
H      -0.536872    1.624192    0.904687
H       0.489187   -0.156439   -0.996487
H       1.961921   -0.309618    0.876520
H       0.659342   -0.095240    2.030221
H       1.622286   -2.625995    1.628527
H      -0.471286   -3.773092    1.126062
H      -2.341423   -2.560545    0.013774
H      -3.011741   -0.672719    1.166446
H      -1.980346   -0.255704   -0.883397
