16

O       0.307789    1.407442   -0.476203
C      -0.019023    0.141927    0.040216
C       0.102033   -0.068548    1.594614
C      -1.328790   -0.608690    1.569574
C      -1.866201   -1.819246    2.188810
O      -2.246243   -0.504553    2.632206
C      -1.560471   -0.063480    0.159819
C       0.648460   -0.927735   -0.716131
N       1.203480   -1.754443   -1.303614
H       1.267754    1.495213   -0.506397
H       0.899392   -0.716556    1.961625
H       0.154398    0.909651    2.080226
H      -2.648240   -2.384141    1.683928
H      -1.254230   -2.387226    2.887716
H      -2.040560    0.918332    0.178438
H      -2.043317   -0.702217   -0.580138
