20

C      -0.114935    1.474132    0.001161
N       0.014158    0.028042   -0.116514
C      -1.160480   -0.727287   -0.047698
C      -1.270301   -2.103417   -0.002249
C      -0.239761   -3.179225    0.011194
N      -2.642186   -2.342092    0.011941
C      -3.290280   -3.632915    0.060546
C      -3.256542   -1.132958   -0.040464
N      -2.397432   -0.135044   -0.072798
H       0.877939    1.921583   -0.098376
H      -0.748813    1.848922   -0.805154
H      -0.563194    1.805286    0.949898
H       0.741102   -0.339083    0.481165
H      -0.123440   -3.665740    0.989962
H      -0.453406   -3.970930   -0.717864
H       0.730397   -2.753090   -0.260243
H      -3.018199   -4.180176    0.969470
H      -4.371986   -3.485160    0.055395
H      -3.020655   -4.246125   -0.806051
H      -4.332855   -1.040826   -0.050095
