11

N      -0.089236    1.281834    0.376778
C      -0.010839    0.098999   -0.050443
N      -1.162851   -0.670287   -0.212185
C      -1.105119   -1.941108   -0.668641
N      -0.028689   -2.568539   -0.995200
C       1.173332   -1.891362   -0.871034
O       2.250328   -2.324050   -1.128613
O       1.131096   -0.548324   -0.390317
H       0.833689    1.706582    0.438389
H      -2.034600   -0.224460    0.030142
H      -2.063931   -2.448246   -0.755983
