20

C       0.151162    1.021271   -1.363615
C       0.117558    0.139841   -0.112614
O       0.496256    0.900960    1.037458
C      -1.252054   -0.527726    0.032701
C      -1.598759   -1.988069    0.064204
C      -0.819787   -2.809324    1.112228
C       0.086161   -2.067295    2.023696
N      -1.368561   -1.997145    2.254540
C      -2.022748   -1.107166    1.220331
H       1.133109    1.489976   -1.465663
H      -0.051430    0.431330   -2.264006
H      -0.601965    1.815305   -1.298339
H       0.889841   -0.629594   -0.213325
H      -0.306214    1.273839    1.417151
H      -1.998095   -0.008238   -0.572183
H      -2.209979   -2.467324   -0.689887
H      -0.889468   -3.892225    1.137410
H       0.573915   -2.677356    2.780735
H       0.625058   -1.169065    1.760172
H      -3.000414   -0.720137    1.480613
