17

N      -0.119615    1.168848    0.472215
C       0.094407   -0.132639    0.112942
O       1.204074   -0.628761    0.104190
C      -1.164707   -0.899170   -0.292479
C      -1.034203   -2.378737   -0.013710
C      -1.523194   -2.957792    1.299938
C      -2.249660   -3.254223    0.009868
O      -3.478268   -2.630142   -0.245927
H       0.684208    1.753346    0.634749
H      -1.022049    1.603125    0.392300
H      -2.053928   -0.489090    0.194064
H      -1.304720   -0.733987   -1.370194
H      -0.127319   -2.813540   -0.418596
H      -0.946555   -3.742677    1.776701
H      -2.017824   -2.275742    1.984833
H      -2.156515   -4.256234   -0.408977
H      -4.141326   -3.043014    0.316781
