17

C      -0.133176    1.502672   -0.092620
C       1.421017    1.731160    0.116175
C       2.159588    1.709028    1.498606
N       3.026172    0.464808    1.484934
C       2.232083   -0.428439    0.696230
C       1.372925   -1.475404    1.006756
C       0.096748   -1.191652    0.396992
C       0.228241    0.002488   -0.297800
N       1.577717    0.319461   -0.250137
H      -0.748658    1.671331    0.793851
H      -0.555865    2.050431   -0.937689
H       1.879205    2.435100   -0.585493
H       2.770542    2.596147    1.683346
H       1.444881    1.604869    2.321132
H       3.923555    0.676493    1.057535
H       1.583699   -2.310786    1.658861
H      -0.803506   -1.767537    0.559500
