17

C       0.065825    1.424941    0.097744
C       0.041455   -0.053467   -0.052242
N      -0.015678   -0.753059   -1.138731
C      -0.012441   -2.084020   -0.712211
C      -0.069846   -3.208463   -1.690900
C       0.048108   -2.109357    0.643625
C       0.082093   -3.169984    1.681509
O       0.083306   -0.802616    1.079607
H       0.976256    1.755672    0.608708
H       0.027168    1.881302   -0.891552
H      -0.787374    1.776775    0.687337
H       0.781508   -3.171714   -2.379223
H      -0.059059   -4.178547   -1.187408
H      -0.978138   -3.150392   -2.300465
H       0.994240   -3.113720    2.286860
H      -0.770389   -3.092586    2.366280
H       0.049112   -4.155009    1.210761
