19

C      -0.130315    1.596939    0.030696
C      -0.001001    0.073602   -0.020563
N       0.743862   -0.478918    1.120864
C       0.050662   -0.718496    2.310461
N      -1.191980   -0.470288    2.403146
C       2.099631   -0.740909    1.086322
O       2.716613   -1.163353    2.051183
C       2.860637   -0.502584   -0.221544
O       4.217535   -0.760847   -0.029847
H       0.848774    2.085780    0.021322
H      -0.694421    1.949992   -0.837906
H      -0.664818    1.900246    0.933363
H      -0.992540   -0.381548    0.010252
H       0.485303   -0.250189   -0.941850
H       0.701351   -1.124065    3.084443
H      -1.528920   -0.717419    3.331598
H       2.438646   -1.158567   -1.001224
H       2.703715    0.532464   -0.559492
H       4.282950   -1.081321    0.885476
