17

O      -0.055999    1.344469   -0.229469
C       0.017785   -0.070404   -0.101342
C      -1.400777   -0.560715    0.174692
N      -2.326490   -0.157337   -0.877136
C      -3.016294   -1.185682   -1.487002
N      -3.906614   -1.171035   -2.399220
C      -2.531983   -2.450331   -0.838889
O      -1.124136   -2.669248   -1.061709
C      -1.533226   -2.078814    0.171252
H       0.790038    1.664881   -0.554539
H       0.379878   -0.544212   -1.022461
H       0.678205   -0.365294    0.728979
H      -1.724968   -0.165280    1.148369
H      -2.223039    0.751903   -1.298156
H      -4.115531   -0.216272   -2.698953
H      -3.159468   -3.333067   -0.811934
H      -1.337578   -2.653479    1.071229
