21

C       0.934074    1.379697    0.323641
C       0.944583    0.272009   -0.696929
C      -0.235025    0.413503    0.228280
C      -0.514242   -0.543758    1.333106
C      -0.063627   -1.798519    1.389353
C      -0.325644   -2.694700    2.570738
C      -0.817391   -1.865479    3.758231
O      -1.840891   -0.971084    3.358349
C      -1.373640    0.006298    2.451156
H       1.595667    1.276750    1.176944
H       0.787524    2.400273   -0.012483
H       0.802460    0.528760   -1.740662
H       1.628500   -0.552324   -0.532252
H      -1.130115    0.843154   -0.219026
H       0.514517   -2.205648    0.564054
H      -1.070320   -3.460165    2.311492
H       0.586564   -3.237830    2.850982
H      -1.248735   -2.496580    4.540305
H       0.026654   -1.307671    4.198132
H      -0.816329    0.798212    2.985979
H      -2.268930    0.483421    2.033198
