23

C       0.158738    1.538619   -0.225373
C       0.235624    0.014725   -0.104415
C       0.459192   -0.463467    1.337384
C       0.517966   -1.973272    1.447902
C       1.806612   -2.727823    1.225582
C       1.171786   -2.705362    2.600075
C       1.837887   -1.994723    3.765327
C       2.900485   -2.865316    4.404471
O       2.965475   -3.126396    5.578008
H       1.084389    2.011662    0.121614
H      -0.004251    1.849224   -1.261999
H      -0.662737    1.943376    0.376374
H      -0.689536   -0.431919   -0.491793
H       1.045078   -0.368927   -0.738131
H       1.385936   -0.016670    1.718300
H      -0.348635   -0.077847    1.974894
H      -0.374538   -2.464125    1.065295
H       1.793920   -3.650740    0.656555
H       2.706351   -2.135419    1.083593
H       0.670292   -3.623925    2.895062
H       2.338013   -1.082360    3.414205
H       1.118225   -1.706111    4.537915
H       3.646879   -3.272452    3.683260
