18

O      -0.104489    1.438552   -0.035678
C      -0.059244    0.041951   -0.000016
C      -0.550257   -0.692340    1.222588
C      -1.372180   -0.690777   -0.048235
C      -2.681021    0.107051   -0.155717
C      -3.420323   -0.606028   -1.261105
C      -2.795609   -1.708753   -1.668678
C      -1.512563   -1.954841   -0.912027
H       0.536643    1.774964    0.598560
H       0.771670   -0.398083   -0.554217
H      -0.046450   -1.607568    1.519322
H      -0.911715   -0.083093    2.046044
H      -3.255939    0.088078    0.781241
H      -2.489390    1.161720   -0.380095
H      -4.366039   -0.244075   -1.649703
H      -3.151651   -2.383276   -2.439595
H      -0.652001   -2.099966   -1.578737
H      -1.581027   -2.865967   -0.299608
