17

O       0.010653    1.435140    0.411544
C      -0.002180    0.065199    0.137440
C       0.682341   -0.218782   -1.183675
O       1.153404    0.670382   -1.850265
C       0.677978   -0.746762    1.266993
O       2.041764   -0.383898    1.335339
C       2.313099    0.105376    2.647089
C       0.925562    0.459121    3.182268
O       0.092722   -0.492018    2.517671
H       0.531031    1.834796   -0.304150
H      -1.038433   -0.308930    0.065520
H       0.729012   -1.278357   -1.505580
H       0.571470   -1.823803    1.061887
H       2.794321   -0.675913    3.250652
H       2.983617    0.965125    2.569897
H       0.819268    0.307344    4.258672
H       0.635261    1.479379    2.913377
