19

C       0.708723    1.371455   -0.357038
O       0.918966   -0.021878   -0.373257
C      -0.169988   -0.729074   -0.954027
C       0.108852   -2.187640   -0.950907
C      -0.536683   -3.237842   -0.345599
N       0.072582   -4.430688   -0.642916
C       1.082620   -4.105404   -1.418877
N       1.157630   -2.764030   -1.646476
C       2.142467   -2.076694   -2.460224
H       0.576798    1.778950   -1.372367
H      -0.178089    1.642111    0.237075
H       1.590676    1.829414    0.096627
H      -1.096364   -0.547875   -0.387543
H      -0.342800   -0.351544   -1.978243
H      -1.409052   -3.190686    0.289942
H       1.803046   -4.790489   -1.842938
H       1.704397   -1.727777   -3.402089
H       2.536755   -1.218106   -1.914237
H       2.955616   -2.767324   -2.691363
