16

C      -0.031612    1.373951    0.066425
N       0.036856   -0.067995    0.027584
N      -0.049039   -0.755091   -1.101729
C      -0.020870   -2.034764   -0.718142
C      -0.092654   -3.173498   -1.680084
C       0.084476   -2.054691    0.690777
N       0.082325   -3.158129    1.540919
N       0.120941   -0.802278    1.143726
H       0.778660    1.765619    0.685848
H       0.070755    1.735021   -0.956151
H      -0.988383    1.708134    0.480876
H       0.830263   -3.767398   -1.683930
H      -0.914488   -3.854343   -1.430737
H      -0.251752   -2.797118   -2.692615
H       0.634432   -3.931897    1.195498
H       0.369044   -2.911298    2.479358
