15

O      -0.076441    0.411834    1.185313
C      -0.085329    1.206499    0.275771
N       1.008183    1.610549   -0.450290
C       2.299208    1.060316   -0.342700
C       2.926794    0.675961    0.995777
C       3.632456    1.660428    0.122641
N       4.302384    1.003406   -1.003348
C       3.111001    0.387980   -1.451728
O       2.884958   -0.347407   -2.367284
H      -0.999741    1.729153   -0.067651
H       0.832574    2.235282   -1.223452
H       2.389376    1.068730    1.851541
H       3.325272   -0.324737    1.131583
H       3.845499    2.690855    0.372392
H       5.164979    0.480590   -0.899022
