20

O      -0.145478    1.454943    0.157703
C      -0.067426    0.060503    0.106094
C      -0.724609   -0.763513    1.185105
C      -1.337542   -0.677126   -0.204183
C      -2.632357    0.075511   -0.423574
C      -3.844906   -0.760490   -0.039435
O      -5.016236    0.019899   -0.295661
C      -6.194029   -0.570782   -0.029854
N      -7.275643    0.053385   -0.218548
H       0.424745    1.759464    0.870966
H       0.851312   -0.326273   -0.334851
H      -0.256313   -1.687833    1.505457
H      -1.225146   -0.208823    1.972870
H      -1.215457   -1.559861   -0.827433
H      -2.630562    1.000993    0.157767
H      -2.726192    0.368016   -1.475742
H      -3.880549   -1.688752   -0.627401
H      -3.802354   -1.035910    1.023076
H      -6.095481   -1.599361    0.346857
H      -8.064155   -0.540091    0.030716
