21

O      -0.148473   -0.069449   -0.219811
C      -0.006819    1.122481   -0.128409
C       1.319159    1.845788   -0.134092
C       1.384099    2.912063   -1.244169
C       2.650644    3.732875   -1.202645
C       4.124359    3.229234   -1.339731
C       4.223419    4.770635   -1.169348
C       3.044442    4.889251   -2.174241
C       3.161274    4.647563   -0.041469
H      -0.891859    1.797241   -0.036607
H       1.429494    2.341073    0.841552
H       2.120829    1.109042   -0.234906
H       1.301862    2.423441   -2.223566
H       0.518726    3.583521   -1.158574
H       4.515629    2.619031   -0.520494
H       4.411923    2.821767   -2.313508
H       5.132846    5.370976   -1.148864
H       3.249814    4.606702   -3.211040
H       2.439925    5.799704   -2.120293
H       2.566570    5.540351    0.174526
H       3.480226    4.148086    0.878171
