12

N      -0.024314    1.322947    0.010543
C      -0.055049    0.065566    0.002617
O       1.194883   -0.654453   -0.008322
C       1.211001   -1.976063   -0.015537
C       0.072034   -2.715508   -0.012955
C      -1.165726   -1.958333   -0.001442
N      -1.220619   -0.673053    0.005941
C       0.096089   -4.134641   -0.020851
N       0.094193   -5.292816   -0.027156
H       0.933235    1.670635    0.007061
H       2.213054   -2.392231   -0.023651
H      -2.108711   -2.502727    0.001205
