17

O      -0.295513   -0.052970    0.376672
C      -0.119848    1.073526   -0.007392
C       1.226478    1.777724   -0.020786
N       1.285574    2.732590   -1.122123
C       1.789157    2.198511   -2.428272
C       2.352717    3.596486   -2.834274
N       3.733815    3.124938   -3.167961
C       3.318399    2.240615   -2.033681
C       2.592670    3.429053   -1.309560
H      -0.953624    1.708808   -0.381888
H       1.291333    2.342641    0.921652
H       2.024791    1.019026   -0.002644
H       1.246030    1.469492   -3.033662
H       1.839041    4.410176   -3.344647
H       3.725549    2.600286   -4.046545
H       3.964359    1.462036   -1.627900
H       3.002462    4.150821   -0.602905
