16

C       0.325557    1.377778   -0.011236
C      -0.071990   -0.101876   -0.029045
C       0.812236   -0.968873   -0.998904
C       1.682064   -1.287763    0.222642
O       2.852215   -1.469742    0.396425
C       0.565335   -0.907352    1.199063
O       0.888894   -0.261254    2.380789
C      -1.507941   -0.276541   -0.180462
N      -2.648329   -0.428714   -0.298078
H       1.413852    1.477783    0.052816
H      -0.010405    1.880375   -0.921456
H      -0.112989    1.880328    0.853329
H       0.285710   -1.847761   -1.379173
H       1.300416   -0.448088   -1.823963
H      -0.077648   -1.770253    1.412850
H       1.828194   -0.040826    2.353758
