14

N       0.027540   -1.157334   -0.003472
C       0.003604   -0.001415   -0.018266
C      -0.020850    1.438308   -0.014816
C      -1.111081    2.224143    0.753228
C      -0.912574    3.255709   -0.340033
C       0.530430    3.281287   -0.724294
C       1.280231    2.266520    0.116427
N      -0.383243    2.241788   -1.322168
H      -2.082983    1.735454    0.662259
H      -0.911086    2.483114    1.796859
H      -1.608694    4.021096   -0.660395
H       0.949373    4.066436   -1.341593
H       1.617142    2.527901    1.123601
H       2.093830    1.809517   -0.450041
