21

C      -0.043847    1.672762    0.063553
C       0.015697    0.143245    0.038348
C      -1.375621   -0.495689   -0.032327
C      -1.337659   -2.037569   -0.046961
C      -2.654640   -2.625359    0.188426
C      -3.747695   -3.100191    0.349767
C      -0.793749   -2.600767   -1.390331
C      -0.390627   -4.060427   -1.382244
O      -0.700919   -1.902976   -2.369329
H       0.958539    2.108180    0.120665
H      -0.525337    2.062522   -0.839706
H      -0.614599    2.035048    0.926002
H       0.609079   -0.184566   -0.821764
H       0.535635   -0.217779    0.936550
H      -1.975116   -0.174914    0.826477
H      -1.895518   -0.159368   -0.934609
H      -0.661906   -2.391951    0.746023
H      -4.712312   -3.515951    0.506135
H      -1.177174   -4.675722   -0.936359
H      -0.175332   -4.393152   -2.398078
H       0.506813   -4.184934   -0.763997
