21

C      -0.026014    1.384591   -0.119017
O      -0.016056   -0.031453   -0.082562
C      -1.278874   -0.598373    0.059291
O      -2.053921   -0.358455   -1.118095
C      -2.874070   -1.487135   -1.406143
C      -2.235403   -2.680036   -0.715297
C      -0.766437   -2.930881   -0.960207
C       0.003449   -2.407062   -2.155704
C      -1.204311   -2.099647    0.226271
H       1.016268    1.710361   -0.139897
H      -0.543075    1.761237   -1.009015
H      -0.513070    1.802642    0.775339
H      -1.791095   -0.131229    0.922450
H      -3.894530   -1.333258   -1.023462
H      -2.933213   -1.581172   -2.496869
H      -2.881071   -3.499623   -0.421031
H      -0.459349   -3.931096   -0.661577
H      -0.326356   -1.410639   -2.449548
H       1.071662   -2.346383   -1.925207
H      -0.117623   -3.083269   -3.009749
H      -1.056764   -2.478991    1.230238
