16

O      -0.247304    0.892016    1.191322
C       0.041213    1.155856    0.052383
C       1.399305    1.671618   -0.384484
C       1.293425    2.882917   -1.312079
C       1.052071    4.246355   -0.674952
C       2.400204    3.926440   -1.249943
C       0.693794    2.624245   -2.594819
C       0.197055    2.385412   -3.664520
H      -0.692903    1.031543   -0.773848
H       1.977946    1.912957    0.511286
H       1.914588    0.857492   -0.912976
H       0.416670    4.941216   -1.210160
H       0.942419    4.268009    0.403959
H       3.221723    3.731406   -0.569415
H       2.685183    4.398658   -2.182348
H      -0.244088    2.182875   -4.608937
