15

C      -0.117006    1.472214   -0.146525
C      -0.025295    0.022563   -0.068869
C       0.054838   -1.176337    0.001792
C       0.109410   -2.641435    0.076217
O      -1.169398   -3.239290    0.242332
C       0.818526   -3.176128   -1.098727
C       1.359617   -3.627524   -2.079597
C       2.045657   -4.153531   -3.232317
O       1.494057   -4.612985   -4.205416
H       0.632249    1.948666    0.494521
H       0.042919    1.825683   -1.170588
H      -1.103170    1.820619    0.178522
H       0.665898   -2.936264    0.975716
H      -1.712872   -2.973336   -0.509017
H       3.151109   -4.104341   -3.160604
