23

C      -0.159778    1.565360    0.116069
C      -0.009698    0.038292    0.010105
C      -1.399332   -0.615153   -0.036632
C       0.808531   -0.356732   -1.260325
C       2.334554   -0.453386   -1.005545
C       2.586448   -0.866230    0.443670
C       1.493358   -1.813603    0.982181
C       0.769563   -0.474380    1.240691
O       2.061867    0.195502    1.293528
H       0.816863    2.052260    0.149738
H      -0.719978    1.956845   -0.739842
H      -0.703354    1.844998    1.026153
H      -1.936819   -0.318438   -0.943926
H      -1.333489   -1.708863   -0.033753
H      -2.008962   -0.312732    0.822430
H       0.453531   -1.332680   -1.608708
H       0.597630    0.344326   -2.074531
H       2.788948   -1.167861   -1.702341
H       2.829770    0.510684   -1.164070
H       3.635882   -1.084765    0.659879
H       1.043910   -2.545405    0.308171
H       1.796679   -2.294752    1.913091
H       0.204984   -0.347398    2.170460
