19

C      -0.100058    1.545346   -0.040841
C       1.443204    1.458798   -0.016733
C       1.299510    0.093195    0.862073
C       1.812965   -1.177675    0.106095
C       0.988457   -0.545208   -1.030241
C       0.650596   -0.522365   -2.525521
O       1.019224    0.891669   -2.573735
C       1.755360    0.735512   -1.324352
C      -0.022902    0.017334    0.045714
H      -0.505535    1.968758    0.882292
H      -0.558284    2.014933   -0.913296
H       2.066773    2.291764    0.306096
H       1.326539    0.189230    1.946769
H       2.880949   -1.337245   -0.067827
H       1.371670   -2.067262    0.566182
H       1.306224   -1.126498   -3.167058
H      -0.394958   -0.680655   -2.808985
H       2.826780    0.624859   -1.529548
H      -0.852353   -0.632826    0.325376
