20

C      -0.579117    1.387944   -0.064550
C       0.080549    0.017493   -0.065994
C       1.472084   -0.162630   -0.733895
C       1.855919   -1.150929    0.399506
C       0.677217   -0.589850    1.250723
C       1.118830    0.435701    2.308210
C       1.769124   -0.264588    3.477778
O       2.928285   -0.163162    3.789203
H       0.085537    2.159781    0.337416
H      -0.847902    1.685852   -1.084105
H      -1.498715    1.393185    0.531974
H      -0.616660   -0.715726   -0.487856
H       1.493543   -0.534200   -1.761186
H       2.062281    0.758271   -0.691017
H       1.692356   -2.193002    0.112510
H       2.856835   -1.062502    0.829026
H       0.043144   -1.342648    1.732225
H       1.829241    1.160448    1.899744
H       0.239444    0.978845    2.681312
H       1.081713   -0.933725    4.048674
