18

C      -0.060686    1.598778    0.023927
C       0.024333    0.070509   -0.068670
C      -1.083938   -0.570445    0.612760
C      -2.028632   -1.077140    1.156806
C       0.556211   -0.794512   -1.176409
C       1.816767   -0.365496   -1.943721
C       2.403735    0.943110   -1.499378
C       2.485393   -0.255247   -0.589261
N       1.260259   -0.766696    0.146522
H      -0.192424    2.066182   -0.954526
H      -0.922730    1.865037    0.637547
H       0.826261    2.018411    0.502600
H      -2.853150   -1.530930    1.648323
H      -0.001837   -1.677358   -1.475310
H       2.144475   -0.889542   -2.831572
H       3.364717    1.142358   -1.967845
H       1.829408    1.836505   -1.317695
H       3.430865   -0.644379   -0.234207
