22

C      -0.306794    1.514745    0.070936
C      -0.051611    0.026273   -0.014519
C       0.586238   -0.624458   -1.192093
C       1.139867    0.164461   -2.368842
O       2.040939    1.188211   -1.986456
C       3.066087    0.689960   -1.130765
C       4.129466    1.768936   -1.002785
C       2.463472    0.289804    0.219377
N       1.285726   -0.583427    0.102510
H       0.381804    2.091426   -0.547221
H      -1.328282    1.728137   -0.262510
H      -0.225395    1.865293    1.106789
H      -0.801213   -0.563548    0.513864
H       0.248285   -1.621688   -1.475647
H       1.648301   -0.536818   -3.051970
H       0.336717    0.651331   -2.932847
H       3.507003   -0.206850   -1.600452
H       3.697226    2.682998   -0.583814
H       4.938073    1.435028   -0.345415
H       4.552895    2.008721   -1.981637
H       3.220756   -0.248071    0.803199
H       2.213532    1.197237    0.783165
