17

C      -0.063280    1.374834    0.003687
N      -0.026115   -0.060935   -0.181298
C      -1.213181   -0.887806   -0.008622
C      -0.580564   -2.281128   -0.228847
O       0.782672   -2.119318    0.166568
C       1.106732   -0.788462    0.136878
N       2.254288   -0.299895    0.350820
C      -1.854911   -0.737491    1.303970
C      -2.374068   -0.601283    2.379357
H       0.949204    1.752856   -0.138739
H      -0.731364    1.829162   -0.734959
H      -0.407376    1.650519    1.009213
H      -1.948165   -0.668992   -0.792300
H      -1.035912   -3.061260    0.381341
H      -0.625292   -2.559542   -1.287853
H       2.933522   -1.041674    0.499808
H      -2.831555   -0.484526    3.331121
