20

C      -0.152269    1.473224   -0.127676
C      -0.056342   -0.035789    0.010796
O      -1.368936   -0.572576    0.031250
C      -1.414674   -1.978078    0.142094
C      -2.884989   -2.368093   -0.003642
O      -3.404117   -1.871422   -1.217561
C      -3.055037   -3.893095   -0.020356
C      -4.457140   -4.303327   -0.003189
N      -5.562078   -4.638197    0.029700
H       0.847718    1.916111   -0.143940
H      -0.665250    1.743451   -1.055112
H      -0.708326    1.901919    0.710634
H       0.512655   -0.470904   -0.826821
H       0.471638   -0.308532    0.938732
H      -0.820832   -2.449879   -0.658813
H      -1.011532   -2.312475    1.112162
H      -3.435557   -1.954762    0.856171
H      -3.115247   -0.951706   -1.270944
H      -2.580014   -4.293123   -0.922861
H      -2.552398   -4.335179    0.847167
