18

C      -0.024704    1.435698    0.066143
N       0.079204   -0.007642   -0.016505
C       0.593927   -0.644310   -1.112882
O       1.002003   -0.047741   -2.096990
C       0.620201   -2.129361   -1.017136
C       1.081822   -2.927066   -1.978912
C       0.963739   -4.358625   -1.562734
O       0.387457   -4.325822   -0.257430
C       0.148171   -2.981031    0.139600
H       0.559885    1.830448    0.904733
H       0.369030    1.841686   -0.866033
H      -1.066351    1.754599    0.184818
H      -0.241395   -0.556362    0.763365
H       1.484057   -2.590151   -2.924798
H       0.321450   -4.940816   -2.242535
H       1.940198   -4.867427   -1.529252
H       0.697009   -2.767015    1.071868
H      -0.924899   -2.843066    0.353575
