20

C      -0.123853    1.513831   -0.016369
C       0.087877    0.023115   -0.005129
C       0.315583   -0.692337   -1.339001
C       0.857886   -2.087087   -0.964738
C       1.474505   -1.906932    0.424639
O       2.381050   -2.544667    0.900098
C       0.811503   -0.720229    1.078029
C       1.420421   -0.154128    2.329105
N      -0.679425   -0.834629    0.914057
H       0.703269    2.025303   -0.520132
H      -1.045070    1.764233   -0.555417
H      -0.208190    1.922913    0.994938
H      -0.606129   -0.736837   -1.927654
H       1.056984   -0.136000   -1.924029
H       0.045558   -2.815875   -0.878933
H       1.595747   -2.486288   -1.662519
H       2.473505    0.095588    2.168627
H       0.899613    0.747749    2.663361
H       1.382866   -0.892759    3.135998
H      -1.099393   -0.248773    1.635573
