15

O       0.101287    0.384278    1.199615
C      -0.016541    1.018357    0.169170
N       1.016883    1.354957   -0.656209
C       2.381280    1.007154   -0.330302
C       3.244827    2.188987   -0.201769
N       3.920846    3.122255   -0.123882
C      -1.356507    1.522715   -0.304796
C      -1.601047    2.970214   -0.431378
O      -1.398563    2.154342   -1.586822
H       0.792377    1.826725   -1.519976
H       2.346876    0.468268    0.622242
H       2.815998    0.335883   -1.080513
H      -2.186797    0.862620   -0.066887
H      -2.612127    3.348975   -0.299783
H      -0.797630    3.668197   -0.205121
