13

O      -0.014956   -0.048448   -0.002197
C       0.005230    1.145375    0.007574
N       1.186866    1.919296    0.000131
N       2.397315    1.315878   -0.018457
C       3.276169    2.305536   -0.020621
C       2.652970    3.573239   -0.003313
C       1.302559    3.306862    0.009860
C       0.198311    4.275249    0.029977
O       0.388088    5.469265    0.037170
H      -0.893010    1.782806    0.022517
H       4.332026    2.077219   -0.034475
H       3.101937    4.552768   -0.000593
H      -0.830820    3.863416    0.037770
