19

C      -0.324614    1.553776    0.093110
C       0.018202    0.073362   -0.035725
C       0.823505   -0.449973   -1.251873
C       2.186013    0.265772   -1.399363
C       2.994695   -0.359445   -0.222999
C       1.942506   -1.335638    0.369521
O       1.208006   -1.758169   -0.785303
C       0.915105   -0.459263    1.097003
O       0.851905   -0.195799    2.268691
H       0.566327    2.187050    0.046589
H      -1.011464    1.874752   -0.695877
H      -0.802262    1.734022    1.060151
H      -0.906602   -0.518242   -0.004317
H       0.247444   -0.550295   -2.171632
H       2.635070    0.019563   -2.363543
H       2.107131    1.352989   -1.336595
H       3.860659   -0.919462   -0.581613
H       3.341146    0.374363    0.508717
H       2.323504   -2.185079    0.932590
