22

C      -0.053435    1.584317    0.003508
C       0.032731    0.053067    0.036679
C       0.867539   -0.422077    1.231615
C      -1.386395   -0.567500    0.030401
C      -1.426340   -2.064181   -0.103501
C      -1.415519   -2.779769   -1.282828
N      -1.439737   -4.117518   -0.976127
C      -1.470610   -4.279799    0.384548
C      -1.463509   -3.026943    0.951199
H       0.942912    2.037885   -0.028676
H      -0.611738    1.936638   -0.870713
H      -0.561433    1.966331    0.897521
H       0.535584   -0.281959   -0.881369
H       0.413907   -0.098061    2.176902
H       0.947027   -1.512181    1.255184
H       1.880485   -0.007145    1.193055
H      -1.901439   -0.268464    0.953445
H      -1.952577   -0.113712   -0.792784
H      -1.398972   -2.445090   -2.308308
H      -1.451389   -4.863871   -1.648161
H      -1.502388   -5.262120    0.827714
H      -1.488262   -2.810874    2.008945
