25

C       0.198157    1.516931    0.028025
C      -0.009617   -0.003749   -0.013328
C       0.727161   -0.680484    1.150512
C      -1.497546   -0.396985   -0.007958
C      -2.300000    0.077168   -1.226024
C      -3.709612   -0.487530   -1.242651
C      -4.545824   -0.335534   -2.533715
C      -4.603077   -1.875357   -2.507882
O      -3.728363   -1.934810   -1.363301
H       1.264346    1.767188    0.030964
H      -0.254529    2.018271   -0.832589
H      -0.244413    1.946310    0.935482
H       0.428317   -0.378370   -0.950403
H       0.329750   -0.341655    2.115015
H       0.618848   -1.769409    1.111452
H       1.797031   -0.447004    1.133757
H      -1.575696   -1.489524    0.040841
H      -1.967117   -0.012876    0.909599
H      -2.372316    1.172502   -1.248846
H      -1.790714   -0.229833   -2.149522
H      -4.248564   -0.178138   -0.334315
H      -5.499024    0.185614   -2.434346
H      -3.990380    0.086816   -3.374153
H      -5.591627   -2.299363   -2.288119
H      -4.181748   -2.397761   -3.374942
