15

C      -0.012513    1.564529    0.030493
C       0.050887    0.060323    0.014162
C      -0.830527   -0.816190    0.897621
C       0.667695   -0.804890    1.078017
O       1.410554   -1.824970    0.446972
C       1.256115   -1.721432   -0.918832
O       1.687390   -2.523085   -1.696795
N       0.540374   -0.570097   -1.179436
H       0.941799    1.996956   -0.285223
H      -0.795999    1.935462   -0.640196
H      -0.243804    1.927369    1.035843
H      -1.410408   -0.318495    1.667590
H      -1.289743   -1.699013    0.466086
H       1.140193   -0.430019    1.977106
H       0.099320   -0.477329   -2.079922
