17

C      -0.022389    1.479281   -0.442461
C      -0.090595    0.127068    0.287354
C      -1.418899   -0.553204    0.139934
N      -2.303499   -0.543414    1.141415
N      -3.370771   -1.203455    0.670451
C      -3.207135   -1.648225   -0.610182
C      -1.936769   -1.234400   -0.983523
C      -4.205380   -2.372330   -1.293348
C      -5.067913   -2.989592   -1.863868
H       0.961993    1.940433   -0.315427
H      -0.203784    1.360158   -1.515428
H      -0.776191    2.169026   -0.051202
H       0.699232   -0.531588   -0.092730
H       0.099995    0.272689    1.354871
H      -4.176321   -1.338547    1.258238
H      -1.463698   -1.411519   -1.935502
H      -5.823282   -3.534403   -2.374060
