19

O       0.012638    1.398424   -0.105223
C      -0.000313   -0.008150    0.039396
C       0.460230   -0.560969    1.417598
C      -0.295378    0.237383    2.504372
O      -1.702390    0.066352    2.409691
C      -2.240939    0.233974    1.103364
C      -1.442262   -0.559342    0.042340
C      -1.171804   -1.971337    0.533792
C      -0.089145   -1.972865    1.314962
H       0.928522    1.688022   -0.159657
H       0.576761   -0.487396   -0.763003
H       1.540537   -0.495156    1.586424
H      -0.023184   -0.107933    3.506460
H      -0.024488    1.300226    2.415118
H      -3.272222   -0.126903    1.163821
H      -2.257044    1.295298    0.818567
H      -1.939317   -0.489719   -0.929266
H      -1.812131   -2.817952    0.317517
H       0.319501   -2.822319    1.849068
