20

C      -0.267769    1.350440   -0.891448
O      -0.263089   -0.044596   -1.083093
C       0.655472   -0.715394   -0.246940
C       0.572091   -2.217528   -0.543144
C      -0.813615   -2.765716   -0.191307
C       0.987923   -2.530398   -2.011986
O       2.196145   -3.323119   -1.884345
C       2.404957   -3.439500   -0.554710
N       1.610559   -2.895690    0.268872
H      -0.546286    1.618567    0.139498
H       0.716626    1.795034   -1.106587
H      -1.004678    1.773331   -1.578557
H       1.682118   -0.358401   -0.433038
H       0.429976   -0.535144    0.815826
H      -1.585197   -2.235413   -0.755436
H      -0.873617   -3.833484   -0.421133
H      -1.008896   -2.637372    0.877145
H       0.247194   -3.126336   -2.551677
H       1.218080   -1.634980   -2.593093
H       3.282300   -4.020663   -0.290893
