15

C      -0.159836    1.581568    0.026273
C       0.051094    0.096908    0.098972
C      -1.128456   -0.899741    0.181764
N      -0.361297   -1.749848    1.139788
C       0.727324   -0.737086    1.217766
C       1.775957   -1.044000    0.138936
O       2.803477   -1.626326    0.025371
O       1.081639   -0.364165   -0.844297
H       0.787815    2.114251    0.145496
H      -0.585754    1.859208   -0.943862
H      -0.849393    1.911907    0.808627
H      -2.027866   -0.442508    0.610166
H      -1.388687   -1.403967   -0.753383
H      -0.833008   -1.886586    2.024711
H       1.050680   -0.389608    2.198609
