19

C       0.070879    1.516284   -0.005757
C      -0.038631    0.012898    0.035565
C      -0.929938   -0.719999    0.997794
C       0.575942   -0.862000    1.114083
C       1.330906   -1.919068    0.285876
C       0.355806   -2.896122   -0.385408
O      -0.306531   -2.024328   -1.323680
C       0.402827   -0.786387   -1.217694
O       1.727577   -1.169245   -0.893221
H       1.049344    1.828526   -0.387399
H      -0.699522    1.958357   -0.648503
H      -0.049110    1.944274    0.994507
H      -1.409328   -0.124136    1.769658
H      -1.534755   -1.539096    0.629828
H       1.081350   -0.427773    1.969364
H       2.203635   -2.361515    0.761937
H       0.885198   -3.689344   -0.924309
H      -0.373100   -3.338959    0.299394
H       0.364617   -0.257623   -2.169803
