13

C      -0.039555    1.477692    0.009227
N      -0.012472    0.011682    0.001060
C      -1.225964   -0.644942    0.004533
O      -2.307188   -0.109171    0.014375
N      -1.070370   -2.030430   -0.004161
N       0.087602   -2.716582   -0.015268
N       1.180988   -2.097058   -0.018399
C       1.218126   -0.663264   -0.009465
O       2.272826   -0.085343   -0.013825
H       0.992569    1.819491    0.001887
H      -0.573682    1.841804   -0.870680
H      -0.557591    1.832518    0.902498
H      -1.905215   -2.598438   -0.002168
