18

C      -0.181495    1.546840   -0.023061
C       0.028992    0.032919    0.006085
C       0.786068   -0.464614    1.262607
O       0.105185   -0.087235    2.454212
C       0.912418   -2.018494    1.188470
C       1.530680   -2.607787    2.372421
N       2.011943   -3.099171    3.300134
C       2.125662    0.127442    1.328938
C       3.235825    0.583946    1.338899
H       0.775796    2.072505   -0.071104
H      -0.774179    1.833769   -0.896071
H      -0.703491    1.883746    0.876060
H      -0.941478   -0.483220   -0.015810
H       0.575737   -0.294258   -0.885414
H      -0.801743   -0.409699    2.391446
H      -0.090191   -2.446559    1.066741
H       1.492419   -2.299502    0.303697
H       4.217499    0.989214    1.370942
