13

O       0.224867    1.118746   -0.684312
C      -0.036011    0.106881    0.262056
C      -1.390886   -0.504490    0.062111
C      -2.264213   -0.483776   -0.978635
C      -3.352733   -1.267823   -0.500815
N      -3.147045   -1.717505    0.723444
O      -1.905640   -1.227496    1.074850
C      -4.561922   -1.581874   -1.186871
N      -5.528420   -1.811850   -1.777896
H      -0.352845    1.865780   -0.494423
H       0.736409   -0.657031    0.116560
H       0.052291    0.454990    1.301513
H      -2.153894   -0.004474   -1.935180
