18

O      -0.182346    1.414311    0.302352
C      -0.019630    0.036487    0.051094
C       0.699311   -0.647653    1.242298
C      -0.437556   -0.848992    2.253435
C      -1.598430   -1.363906    1.382450
C      -1.406695   -0.680773    0.000302
C       0.752439   -0.148904   -1.234590
O       1.167482    0.781931   -1.882622
H       0.300509    1.866376   -0.407871
H       1.103706   -1.620821    0.932232
H       1.524178   -0.029736    1.603662
H      -0.173752   -1.532721    3.064745
H      -0.693254    0.118271    2.697866
H      -1.531830   -2.452119    1.276931
H      -2.577711   -1.145839    1.815731
H      -2.158552    0.083345   -0.204272
H      -1.452582   -1.413431   -0.812549
H       0.924132   -1.199672   -1.549222
