15

N      -0.104888    1.231880   -0.568762
C      -0.043448    0.072631   -0.103145
O       0.990716   -0.614775    0.505609
C       0.185700   -1.834644    0.633319
C      -0.172926   -2.178220    2.067754
C      -1.515646   -1.474834    2.328957
O      -2.093659   -1.379296    3.383851
N      -1.963598   -0.987210    1.119606
C      -1.031330   -1.082458    0.025968
H       0.776581    1.735836   -0.456867
H       0.629646   -2.638890    0.047401
H      -0.294733   -3.254806    2.218974
H       0.579749   -1.824016    2.775367
H      -2.774431   -0.388275    1.090642
H      -1.481630   -1.441792   -0.900745
