16

N       0.210881    1.167943   -0.655495
C      -0.287327    0.139553    0.260075
C       0.690278   -0.409721    1.266396
C       2.035130   -0.542366    1.176720
N       2.969650   -0.257745    0.188490
O       2.468014   -1.127418    2.393525
C       1.326035   -1.286766    3.083929
O       1.415496   -1.821104    4.302687
N       0.245017   -0.897443    2.502115
H       0.494485    1.979373   -0.112389
H       1.065861    0.831812   -1.091203
H      -1.142780    0.538350    0.815071
H      -0.685127   -0.689752   -0.340417
H       3.692277    0.387383    0.491991
H       3.417506   -1.086418   -0.190523
H       2.342709   -2.017028    4.482319
