17

C       0.080076    1.566711    0.442740
C      -0.103848    0.362580   -0.478058
N      -1.515148    0.007334   -0.561716
C      -1.887448   -0.981907   -1.288249
C      -3.278997   -1.368523   -1.399012
C      -3.612182   -2.410295   -2.172410
O      -2.732110   -3.157128   -2.882355
N      -1.377084   -2.851862   -2.830102
C      -1.018501   -1.857625   -2.097609
H       1.135895    1.845981    0.516119
H      -0.482090    2.425590    0.064956
H      -0.290953    1.340093    1.446447
H       0.301402    0.601346   -1.474330
H       0.492267   -0.481625   -0.096253
H      -4.034088   -0.813798   -0.857602
H      -4.619425   -2.780156   -2.323459
H       0.054325   -1.693865   -2.117492
