19

C      -1.267071    0.719871   -0.896334
C      -0.224679   -0.083343   -0.103041
O      -0.806190   -1.094930    0.724579
C      -1.473125   -0.609065    1.873098
C      -2.993662   -0.456855    1.714565
C      -3.698615   -1.512298    0.890130
O      -3.575354    0.440397    2.279213
C       0.727043   -0.743562   -0.995104
C       1.505940   -1.254426   -1.752957
H      -0.766138    1.479146   -1.503100
H      -1.829062    0.060771   -1.562680
H      -1.961204    1.227265   -0.220384
H       0.332913    0.614231    0.543571
H      -1.307764   -1.348874    2.669517
H      -1.067412    0.349644    2.219988
H      -3.575872   -2.491012    1.369968
H      -4.759516   -1.273785    0.810899
H      -3.242797   -1.598453   -0.099149
H       2.199913   -1.713227   -2.413258
