18

C      -0.233119    1.563957   -0.051287
C       0.061986    0.053246    0.019148
C       0.806007   -0.465955   -1.172453
C       2.158482   -0.732938   -1.382481
C       3.227914   -0.599711   -0.407953
O       4.400169   -0.830461   -0.625965
C       2.309085   -1.168905   -2.739057
C       1.069879   -1.154404   -3.310215
N       0.169736   -0.725068   -2.351408
H       0.696055    2.137514   -0.111689
H      -0.833943    1.811666   -0.932239
H      -0.783324    1.891839    0.835850
H       0.641618   -0.162162    0.920857
H      -0.881532   -0.497929    0.126716
H       2.902878   -0.257974    0.601720
H       3.239600   -1.455658   -3.201506
H       0.735733   -1.412486   -4.302113
H      -0.821730   -0.629580   -2.495484
