20

C      -0.237768    1.535961    0.140663
C       0.194234    0.083975   -0.101550
C       0.843051   -0.527172    1.123508
C       0.035959   -1.196028    2.201687
C       0.973870   -2.036306    1.339451
C       0.378746   -3.027997    0.348545
C       2.197625   -2.484206    1.952998
C       3.221913   -2.873148    2.451138
H       0.619630    2.163656    0.406699
H      -0.700592    1.964762   -0.753494
H      -0.961193    1.599641    0.960157
H      -0.678267   -0.505335   -0.403235
H       0.896023    0.048022   -0.944875
H       1.704012    0.032277    1.480846
H       0.303296   -1.036575    3.239495
H      -1.026501   -1.334736    2.023661
H      -0.576712   -2.676965   -0.047763
H       1.057395   -3.197178   -0.493457
H       0.205308   -3.991663    0.837161
H       4.125388   -3.211256    2.894074
