23

C      -0.495979    1.150564    0.340510
O       0.025497   -0.161236    0.269097
C       0.547252   -0.496312   -1.001388
C       1.383763   -1.775941   -0.854509
C       2.572755   -1.654875    0.117652
C       3.177793   -3.041011    0.377968
C       3.645064   -0.682031   -0.391051
C      -0.585152   -0.766785   -1.988818
O      -0.490449   -0.662220   -3.183335
H       0.277536    1.903839    0.128340
H      -1.328476    1.307909   -0.361759
H      -0.864937    1.295625    1.358244
H       1.163569    0.320448   -1.406014
H       0.716709   -2.575747   -0.508157
H       1.737499   -2.063084   -1.852457
H       2.177887   -1.268684    1.064437
H       4.004410   -2.980745    1.093406
H       2.432526   -3.733072    0.783829
H       3.571509   -3.479797   -0.546924
H       3.255775    0.331818   -0.524971
H       4.478232   -0.620090    0.316528
H       4.051621   -1.013927   -1.354110
H      -1.522259   -1.115618   -1.493510
