15

O      -0.050525    1.481260   -0.093325
C       0.038528    0.073702   -0.040163
C       0.036717   -0.617060    1.338709
C      -1.485492   -0.336957    1.571579
N      -1.865891   -1.766153    1.823260
C      -0.783338   -1.838138    0.786768
C      -1.333563   -0.605152    0.019501
O      -2.305410   -0.657991   -0.946040
H       0.834204    1.849779   -0.011895
H       0.743852   -0.323176   -0.783615
H       0.811314   -0.655763    2.102587
H      -1.950079    0.509060    2.075281
H      -1.496561   -2.067078    2.729809
H      -0.406609   -2.770853    0.366560
H      -2.521929    0.247198   -1.197827
