21

C      -0.072734    1.504379   -0.098570
C       0.035428    0.000882    0.014867
C       1.336815   -0.706273   -0.176257
C       0.712392   -0.638766    1.215142
C       1.338017    0.112103    2.383005
C       1.625774   -0.999739    3.422231
C       0.474686   -2.002080    3.238327
C       0.134641   -1.917420    1.748154
O      -0.484192   -2.733373    1.105694
H       0.835767    2.002813    0.253250
H      -0.230938    1.801293   -1.140959
H      -0.914131    1.890318    0.487150
H      -0.835552   -0.555567   -0.323631
H       1.329295   -1.675254   -0.663563
H       2.230578   -0.109549   -0.332689
H       2.239731    0.666967    2.111440
H       0.625953    0.836260    2.799622
H       2.578433   -1.486438    3.184929
H       1.701713   -0.611688    4.440710
H       0.693943   -3.028811    3.538631
H      -0.416979   -1.683866    3.796191
