23

C       0.037982    1.543170   -0.102375
C       0.009582    0.028379    0.113187
O       0.615407   -0.331879    1.348192
C      -1.416093   -0.543336    0.046526
C      -1.448008   -2.075113    0.034162
C      -2.882997   -2.600439    0.179290
C      -3.561001   -1.958696    1.396782
C      -3.433953   -0.437580    1.318891
O      -2.079965   -0.027151    1.202635
H       1.057731    1.916652    0.020462
H      -0.310478    1.805431   -1.107529
H      -0.609298    2.042575    0.624386
H       0.608034   -0.460919   -0.665020
H      -0.034772   -0.107709    2.026306
H      -1.920528   -0.159392   -0.857871
H      -0.995007   -2.437151   -0.896186
H      -0.823089   -2.432668    0.860004
H      -3.456614   -2.352941   -0.724929
H      -2.885981   -3.692296    0.262655
H      -4.619483   -2.237156    1.454077
H      -3.080200   -2.307719    2.318996
H      -4.011303   -0.056856    0.458716
H      -3.820366    0.046307    2.220932
