19

C      -0.001420    1.587077   -0.004647
O       1.265037    2.219057   -0.076167
C       2.056252    1.762940   -1.159849
C       2.205010    0.245392   -1.173515
C       2.499255   -0.493215    0.136038
C       1.163514   -0.607346    0.885962
C       1.524819   -1.598391   -0.194555
C       0.875368   -0.567814   -1.194508
C       0.106921    0.066077    0.004394
H      -0.466599    1.957275    0.915364
H      -0.639231    1.901565   -0.850982
H       1.623794    2.094988   -2.121468
H       3.027827    2.255931   -1.046448
H       2.881446   -0.074178   -1.972717
H       3.439582   -0.568466    0.667043
H       1.142379   -0.764746    1.956767
H       1.618172   -2.674031   -0.191974
H       0.368806   -0.793233   -2.131113
H      -0.876852   -0.395389    0.137273
