15

C      -0.139935    1.455987    0.039829
C       0.097987   -0.014973    0.055130
O      -1.076163   -0.881053   -0.082779
C      -0.603158   -1.695929    0.961010
N      -1.171267   -2.637815    1.557725
C       0.698315   -0.993088    1.078480
C       1.272887   -0.823070   -0.347339
O       1.242810   -1.790529   -1.334508
H       0.796185    1.989845    0.226115
H      -0.523572    1.773942   -0.935554
H      -0.865657    1.743081    0.806618
H      -2.107518   -2.804493    1.185708
H       1.277052   -0.844022    1.978621
H       2.225453   -0.299961   -0.342595
H       0.313874   -1.988296   -1.512167
