15

N      -0.077487    1.290398    0.031471
C       0.039617   -0.041136    0.268128
O       1.045560   -0.546554    0.730618
C      -1.211781   -0.864840   -0.044979
C      -0.851516   -2.344244   -0.240107
C      -1.902369   -3.305887    0.337073
O      -2.762713   -2.962404    1.099379
C      -0.562041   -2.696832   -1.628054
N      -0.366765   -2.989685   -2.728885
H       0.707607    1.885805    0.238837
H      -0.894769    1.694334   -0.390647
H      -1.887999   -0.803980    0.815445
H      -1.751457   -0.467562   -0.908572
H       0.070530   -2.516809    0.342383
H      -1.782660   -4.360462    0.016915
