20

C      -0.054658    1.586731   -0.082638
C       0.094121    0.081371    0.026094
N       1.278948   -0.597191   -0.712260
C       2.129732   -0.151411    0.490154
C       0.840366   -0.635857    1.191727
C       0.495693   -0.694266    2.658030
C       0.954608   -1.826010    0.184274
C      -0.195471   -2.636874   -0.156326
C      -1.128074   -3.354691   -0.406189
H      -0.226246    1.863746   -1.128134
H      -0.929665    1.909219    0.492032
H       0.805523    2.155257    0.277570
H      -0.849326   -0.390985   -0.261953
H       3.037727   -0.747201    0.623814
H       2.367557    0.911230    0.494879
H       0.450583    0.310927    3.091094
H      -0.478478   -1.171870    2.807261
H       1.242562   -1.267764    3.217653
H       1.837120   -2.461571    0.310336
H      -1.953110   -3.981704   -0.638567
