18

C      -0.118101    1.524396    0.021531
C       0.037197    0.028131   -0.002245
C       0.789265   -0.688217   -1.154041
C      -0.335642   -1.717303   -0.955115
C      -0.006080   -2.675828    0.174005
O       0.522450   -1.962265    1.308134
C       0.487028   -0.595432    1.306905
N       0.833197    0.089998    2.310218
O      -1.188888   -0.687325   -0.390836
H       0.838992    1.999874    0.248041
H      -0.478374    1.872139   -0.950165
H      -0.828617    1.821246    0.796430
H       0.686927   -0.141213   -2.092230
H       1.824058   -0.997331   -0.993676
H      -0.780895   -2.223885   -1.815567
H      -0.911849   -3.199566    0.499465
H       0.745608   -3.415038   -0.125163
H       1.105410   -0.522324    3.082536
