15

N      -0.092776    1.356368   -0.190366
C      -0.026617   -0.017605   -0.109119
N      -1.169831   -0.703605   -0.079586
C      -1.120941   -2.034088   -0.057008
O      -2.308175   -2.687889   -0.031088
C       0.059456   -2.767063   -0.052483
C       1.253251   -2.043962   -0.071413
C       1.226637   -0.662226   -0.101023
O       2.335673    0.151384   -0.115954
H       0.729853    1.852562    0.114389
H      -0.972690    1.751427    0.103134
H      -2.986343   -1.999761   -0.044294
H       0.039950   -3.848031   -0.029480
H       2.206930   -2.565971   -0.062593
H       3.127365   -0.392792   -0.065701
