15

O      -0.081240   -0.084334    0.253412
C       0.016263    1.093924    0.006022
C       1.262737    1.842828   -0.110173
N       2.515733    1.404878    0.027235
C       3.359670    2.455782   -0.167509
C       2.597529    3.582286   -0.434045
C       2.246060    5.028267   -0.757830
C       0.752983    4.533104   -0.705193
N       1.305596    3.187887   -0.394896
H      -0.884385    1.730705   -0.160737
H       4.430324    2.340578   -0.105518
H       2.508587    5.764566    0.004568
H       2.571415    5.390026   -1.735362
H       0.142451    4.944572    0.100633
H       0.206456    4.566919   -1.649427
