21

C      -0.202455    1.590988    0.194786
C       0.106606    0.109100   -0.018742
C       0.598526   -0.652787   -1.248704
C       1.838157   -0.095076   -2.014518
C       2.227369   -0.669398   -3.345551
C       2.360913    1.210507   -1.482648
C       2.624770   -0.061226   -0.710898
C       1.396595   -0.663983    0.035105
O       1.579399   -1.751698    0.875800
H      -0.431876    2.106561   -0.742373
H      -1.080946    1.692643    0.839752
H       0.616670    2.124751    0.684557
H      -0.648075   -0.527026    0.444281
H      -0.000219   -1.450811   -1.671386
H       1.545210   -0.337273   -4.138765
H       3.239307   -0.359486   -3.626360
H       2.205060   -1.765415   -3.329045
H       3.236868    1.573436   -2.016347
H       1.727230    2.006104   -1.119113
H       3.624085   -0.437259   -0.528773
H       1.780415   -1.417053    1.757666
