12

N       0.064757    1.395360    0.078952
C      -0.004191    0.057404    0.028808
C      -1.118339   -0.758328    0.018354
O      -0.697024   -2.066506   -0.008241
C       0.635911   -1.961038   -0.015489
N       1.116557   -0.754104    0.004416
N      -2.475028   -0.443841    0.010900
O      -2.733965    0.775336    0.023450
O      -3.307106   -1.344110   -0.008934
H       0.952711    1.844194   -0.062437
H      -0.799280    1.906992   -0.009217
H       1.194140   -2.884578   -0.036843
