15

O       0.028324   -0.006422   -0.006875
C      -0.012012    1.193859   -0.053373
C      -1.264587    2.075297   -0.126698
C      -0.824425    3.366081   -0.851211
C       0.688690    3.434808   -0.625170
N       1.051423    3.261485    0.792905
C       1.187851    2.107537   -0.129454
C       1.505580    4.266417   -1.464636
N       2.151194    4.954052   -2.134470
H      -2.073675    1.542877   -0.628197
H      -1.585900    2.287484    0.897934
H      -1.019896    3.296294   -1.925193
H      -1.320117    4.263325   -0.473742
H       1.977236    3.651332    0.961625
H       2.166810    1.712990   -0.372651
