13

O      -0.379405    0.338425    0.401361
C       0.133959    1.379218    0.090942
C       1.506280    1.487962   -0.562012
N       1.584807    2.581250   -1.505343
C       2.345101    3.695193   -1.263953
O       2.988598    3.866050   -0.246045
C       2.310847    4.663667   -2.349891
C       2.300808    5.480375   -3.231820
H      -0.360309    2.361735    0.266439
H       2.238695    1.704947    0.225413
H       1.763190    0.528971   -1.022247
H       1.104617    2.514663   -2.388571
H       2.301642    6.211528   -4.003497
