15

C       0.118221    1.519719    0.248984
C      -0.015169    0.008656    0.071976
C       0.694248   -0.569874   -1.184250
N       1.599149   -1.607755   -0.668163
C       1.499435   -1.560114    0.591811
O       0.655445   -0.666520    1.174171
C      -1.491968   -0.377382    0.154132
O      -2.230996   -0.390481   -0.793661
H       1.175794    1.797772    0.257404
H      -0.377631    2.032784   -0.580015
H      -0.335275    1.853151    1.187222
H      -0.025956   -0.990108   -1.891206
H       1.273153    0.194443   -1.714314
H       2.043714   -2.180945    1.294554
H      -1.833787   -0.628052    1.182250
