18

C       0.222932    1.537731   -0.069455
C       0.059642    0.044387    0.072243
O       0.884360   -0.723781   -0.852048
C       1.381032   -1.575688    0.186890
C       2.737711   -1.130875    0.759530
N       2.048184   -0.126872    1.623773
C       0.706663   -0.691614    1.284846
C      -0.115350   -1.136950    2.374346
C      -0.798310   -1.495269    3.298208
H       1.246305    1.831730    0.171187
H      -0.011256    1.840688   -1.094727
H      -0.465080    2.057817    0.605720
H      -0.990659   -0.256506   -0.041015
H       1.188974   -2.635542    0.009070
H       3.239206   -1.932229    1.316353
H       3.434052   -0.694035    0.037780
H       2.266327   -0.214648    2.608981
H      -1.404932   -1.815712    4.109021
