21

C       0.099279    1.359856   -0.135347
O       0.039247   -0.043106   -0.056443
C      -1.282830   -0.527304    0.063551
C      -1.209622   -2.048147    0.149819
C      -2.584472   -2.755899    0.065806
C      -3.534168   -2.340815    1.199112
O      -3.261490   -2.395773   -1.146428
C      -2.365387   -4.211337    0.101042
C      -2.165842   -5.396952    0.099473
H       1.151580    1.638526   -0.232266
H      -0.452647    1.745578   -1.007534
H      -0.312953    1.839788    0.767027
H      -1.760589   -0.099223    0.960137
H      -1.889516   -0.228232   -0.805082
H      -0.584305   -2.405565   -0.676406
H      -0.704129   -2.345608    1.074419
H      -3.780085   -1.280058    1.109519
H      -4.460052   -2.915577    1.133229
H      -3.073913   -2.521541    2.173433
H      -2.784956   -2.803461   -1.878132
H      -2.000508   -6.446234    0.103600
