18

C      -0.014912    1.380598   -0.029758
O       0.057740   -0.024302   -0.036249
C       0.644129   -0.547544    1.134413
C       0.684666   -2.070779    1.003133
C       1.329477   -2.723048    2.180877
C       0.806229   -3.562251    3.107760
O       1.790221   -3.891601    4.000732
C       2.873645   -3.217789    3.557831
N       2.675217   -2.512214    2.494940
H       0.982773    1.841915    0.043876
H      -0.477911    1.689572   -0.970200
H      -0.626256    1.755474    0.806933
H       1.664945   -0.157425    1.272291
H       0.060156   -0.257906    2.025025
H      -0.335118   -2.447667    0.877444
H       1.238183   -2.319474    0.090720
H      -0.161681   -4.002276    3.274481
H       3.783602   -3.335721    4.125187
