20

C      -0.082140    1.576823    0.087923
N      -0.034631    0.133788    0.073605
C      -1.254225   -0.612142    0.449709
C      -0.383952   -1.621204    1.221676
O      -0.131906   -2.767242    0.440712
C       1.118808   -3.376088    0.707485
C       2.272010   -2.407639    0.652411
C       2.095568   -1.096710    0.798739
C       0.740761   -0.560149    1.136630
H       0.911616    1.986229   -0.123522
H      -0.761135    1.933993   -0.693910
H      -0.426170    1.995285    1.054985
H      -1.923849   -0.050442    1.121218
H      -1.829227   -1.014684   -0.389823
H      -0.713024   -1.900067    2.231059
H       1.102358   -3.897794    1.682631
H       1.240162   -4.149272   -0.059132
H       3.256818   -2.830756    0.472354
H       2.927054   -0.402001    0.713997
H       0.785279    0.038409    2.064151
