19

C      -0.115617   -1.185442    0.455976
C      -0.075634   -0.019809    0.164941
C      -0.005381    1.398773   -0.183153
C       1.403728    1.960612   -0.138031
C       1.987977    2.491133   -1.211136
C       3.360710    3.105268   -1.167732
O       3.857296    3.285812    0.142896
C       3.631516    2.153276    0.965170
C       2.135682    1.916622    1.181600
H      -0.160404   -2.216245    0.706548
H      -0.430479    1.553781   -1.181675
H      -0.644589    1.962279    0.513147
H       1.486047    2.497949   -2.176199
H       4.059863    2.491060   -1.766620
H       3.346900    4.101038   -1.627507
H       4.086857    1.256216    0.513976
H       4.144605    2.353742    1.909689
H       1.726619    2.674656    1.864286
H       1.978273    0.944299    1.664180
