21

C      -0.071459    1.408544    0.299697
O      -0.084447    0.008600    0.431398
C      -1.193330   -0.588695   -0.202941
C      -1.075275   -2.095925   -0.100934
C      -1.477399   -2.733762    1.219782
C      -2.374236   -2.882515    0.026519
C       0.005041   -2.688879   -0.846125
C       0.903834   -3.179470   -1.481128
C       1.997321   -3.768172   -2.240938
H       0.819321    1.777513    0.813891
H      -0.027618    1.721041   -0.756053
H      -0.961503    1.873092    0.755110
H      -2.132567   -0.258651    0.274432
H      -1.238421   -0.286042   -1.262302
H      -0.908600   -3.595743    1.545737
H      -1.779048   -2.061512    2.015370
H      -3.302204   -2.320995    0.001580
H      -2.414145   -3.843605   -0.471306
H       2.517791   -4.538111   -1.660081
H       1.641845   -4.235789   -3.166303
H       2.738370   -3.009887   -2.517786
