17

C       0.057622    1.573676    0.067351
C      -0.031447    0.042913   -0.056039
C      -1.442800   -0.457699   -0.120584
C      -2.030234   -1.059003   -1.170994
C      -3.412127   -1.476279   -1.088302
N      -4.028350   -2.057750   -2.054916
C      -4.002528   -1.150379    0.219157
N      -3.428636   -0.576242    1.212272
O      -2.094803   -0.214295    1.051440
H       1.102933    1.888846    0.125961
H      -0.398722    2.062498   -0.798550
H      -0.456886    1.922137    0.966099
H       0.491319   -0.300540   -0.953113
H       0.461864   -0.422201    0.806013
H      -1.475953   -1.235003   -2.083935
H      -4.993957   -2.266360   -1.790780
H      -5.043177   -1.408508    0.409458
