18

C      -0.738506    1.104723    0.145709
N       0.488508    0.357895   -0.110474
C       1.055330   -0.273033    1.046268
C       0.453852   -1.591947    1.607131
O       0.561043   -2.529705    0.534424
C       1.711129   -2.361284    1.411400
C       2.298544   -3.558898    2.076551
C       2.378825   -1.102159    0.859360
O       3.495626   -0.821259    0.545471
H      -0.522730    1.932100    0.831055
H      -1.100946    1.535682   -0.791743
H      -1.555740    0.508030    0.585993
H       0.333038   -0.346133   -0.824820
H       1.221113    0.473872    1.834154
H      -0.313609   -1.761934    2.353615
H       1.510523   -4.203071    2.474825
H       2.893307   -4.139218    1.364138
H       2.958155   -3.255388    2.895134
