18

O      -0.775741    1.512526    0.598580
C       0.073961    1.055146   -0.120927
C       1.462147    1.656294   -0.253837
O       2.361008    0.822507   -1.003570
C       2.537790    1.831421   -2.022821
C       1.582272    2.803943   -1.299889
N       0.355079    3.081635   -2.011296
C      -0.466979    4.168205   -1.479298
C       0.297690    4.348271   -2.742073
H      -0.086985    0.152054   -0.749090
H       1.847151    1.899920    0.744118
H       3.581998    2.154829   -2.098867
H       2.177508    1.497532   -3.001800
H       2.067715    3.709858   -0.905728
H      -1.537313    3.992319   -1.498017
H      -0.106716    4.691530   -0.596158
H       1.173883    4.993837   -2.710146
H      -0.205590    4.310758   -3.703220
