22

C      -0.026611    1.510570   -0.025608
C       0.019276   -0.011828    0.034373
C       1.081073   -0.657596   -0.919136
C       1.841666   -1.191987    0.299789
C       0.796756   -0.567695    1.239854
C       0.985626   -2.064681    1.187738
C      -0.065843   -3.019430    0.652446
C       1.732667   -2.624134    2.389662
H       0.974857    1.939063    0.096172
H      -0.425886    1.855198   -0.985917
H      -0.661808    1.919197    0.768544
H      -0.997419   -0.407698   -0.073255
H       0.726492   -1.398361   -1.643454
H       1.644535    0.107091   -1.460804
H       2.922060   -1.199600    0.396872
H       0.955284   -0.017886    2.162676
H      -0.596507   -2.630236   -0.218780
H       0.393021   -3.971337    0.359643
H      -0.814681   -3.240113    1.422534
H       1.044053   -2.840853    3.214718
H       2.246357   -3.558123    2.133349
H       2.484842   -1.919633    2.758811
