16

N       0.091110   -1.172515   -0.161775
C       0.047402   -0.020347   -0.098863
C      -0.005709    1.441829    0.007845
N       1.325558    2.009314    0.081840
C       2.124992    1.793772    1.305582
C       2.676082    3.240774    1.135743
C       1.438794    3.473956    0.219195
C       2.818278    4.067621    2.318112
N       2.919810    4.726395    3.262517
H      -0.510353    1.837773   -0.881291
H      -0.636556    1.699278    0.880357
H       1.516793    1.698655    2.217488
H       2.840799    0.970941    1.254285
H       3.603631    3.247752    0.560447
H       1.597378    4.018370   -0.715161
H       0.608175    3.932150    0.777396
