25

C      -0.134126    1.497025    0.074171
C      -0.214211    0.006906    0.357344
O      -1.249541   -0.545454   -0.442188
C      -1.401609   -1.920696   -0.275456
C      -2.365823   -2.452351    0.773503
C      -3.087621   -1.520936    1.724064
C      -2.703591   -2.533653   -0.714422
C      -3.776756   -1.633776   -1.298456
C      -2.636838   -3.907042   -1.357938
H       0.664713    1.955201    0.664997
H       0.070124    1.675655   -0.985336
H      -1.078007    1.988444    0.327611
H       0.743008   -0.484712    0.117377
H      -0.415113   -0.179419    1.423187
H      -0.483950   -2.484437   -0.458997
H      -2.079116   -3.402144    1.220680
H      -3.158702   -0.508922    1.319808
H      -4.103879   -1.871975    1.935334
H      -2.557377   -1.458141    2.680811
H      -3.720108   -0.617419   -0.908613
H      -3.667726   -1.572129   -2.387392
H      -4.776261   -2.032857   -1.089572
H      -3.578484   -4.451483   -1.217190
H      -2.455564   -3.830063   -2.436743
H      -1.835835   -4.516667   -0.927508
