18

O      -0.763773    1.177920    0.776307
C       0.138539    0.939916    0.013235
C       1.411120    1.751078   -0.100788
C       1.787025    2.510478    1.176796
C       2.355622    3.843347    0.661456
O       1.645091    4.115324   -0.545511
C       1.415525    2.896883   -1.195499
C       2.645592    2.174688   -1.812217
N       2.465360    1.048705   -0.864226
H       0.096620    0.096105   -0.710190
H       0.873032    2.671807    1.754586
H       2.496635    1.957604    1.799319
H       2.190237    4.685011    1.337785
H       3.436137    3.767605    0.468322
H       0.545295    3.009427   -1.843725
H       2.546386    1.875851   -2.861190
H       3.569241    2.754215   -1.699921
H       3.285024    0.783721   -0.329841
