20

C      -0.919161    1.148207    0.088252
C       0.011024   -0.061380   -0.037503
C       0.793000   -0.027272   -1.339411
O       1.865996    0.920955   -1.455320
C       2.186328   -0.478086   -1.401960
C       2.879600   -0.998542   -0.165519
C       2.186918   -0.652371    1.144636
C       1.857261    0.757536    1.504630
N       0.794600   -0.205745    1.194324
H      -0.344243    2.078878    0.084583
H      -1.627034    1.182195   -0.745749
H      -1.482440    1.091445    1.023216
H      -0.613148   -0.966272   -0.098753
H       0.176383   -0.109918   -2.236870
H       2.564554   -0.873936   -2.345107
H       2.933242   -2.090975   -0.264598
H       3.918188   -0.644052   -0.143321
H       2.445784   -1.330949    1.956462
H       1.894843    1.075735    2.544135
H       2.098489    1.518942    0.771785
