20

C      -0.192120    1.514161   -0.030641
C      -0.010047    0.001928    0.034636
C      -1.319816   -0.766458    0.121726
O       0.646128   -0.461123   -1.180664
C       1.982831   -0.376747   -1.225821
O       2.683605    0.045673   -0.332146
C       2.516396   -0.882607   -2.524156
C       3.593639   -0.061475   -3.159225
N       3.914835   -1.338189   -2.532852
H       0.776622    2.014832   -0.090637
H      -0.793430    1.792963   -0.901781
H      -0.704911    1.867896    0.869161
H       0.645097   -0.252126    0.872400
H      -1.961917   -0.538114   -0.734619
H      -1.138074   -1.844290    0.138953
H      -1.854477   -0.491504    1.035670
H       1.824129   -1.444022   -3.140872
H       3.662493   -0.041554   -4.242805
H       3.877714    0.854273   -2.649220
H       4.293335   -1.156382   -1.603133
