22

C      -0.147339    1.558329    0.038638
C      -0.004436    0.036912   -0.016229
C       0.648247   -0.446391   -1.312010
C       0.944458   -1.945296   -1.230924
C       1.920418   -2.265125   -0.084739
C       3.393533   -2.007841   -0.454151
C       1.602447   -1.516268    1.213186
O       2.100848   -1.849310    2.274984
N       0.779729   -0.426192    1.127158
H       0.832706    2.041711   -0.025117
H      -0.766569    1.913147   -0.790788
H      -0.625464    1.877566    0.971224
H      -1.014976   -0.402330    0.035245
H      -0.021134   -0.225805   -2.149833
H       1.573297    0.118119   -1.483137
H       0.001251   -2.483925   -1.072543
H       1.354884   -2.310558   -2.178828
H       1.833701   -3.324419    0.179202
H       3.563078   -0.966392   -0.747433
H       4.034973   -2.226052    0.402450
H       3.694301   -2.646953   -1.290323
H       0.591785   -0.001220    2.025362
