17

N       0.093477   -1.137281   -0.111477
C       0.045656    0.017656   -0.045645
C      -0.027306    1.437500    0.053383
C      -1.209730    2.258894    0.567852
N      -0.822403    3.392597   -0.346108
C       0.011664    4.356072    0.405486
C       1.241558    3.555293    0.932442
C       1.226570    2.334752    0.017511
C       0.164774    2.501295   -1.020029
H      -2.171651    1.835833    0.270289
H      -1.231967    2.506141    1.634532
H       0.331294    5.141297   -0.286851
H      -0.580065    4.822525    1.197178
H       2.176487    4.112345    0.824971
H       1.144341    3.284162    1.987862
H       2.142246    1.816842   -0.241586
H       0.252885    2.416832   -2.094934
