17

O      -0.853775    1.112869   -0.949560
C      -0.185824    0.169132   -0.137182
C      -1.212026   -0.895469    0.320472
C      -1.241825   -1.994729   -0.773735
O      -2.490626   -2.137290   -1.402035
C      -0.167681   -1.533377   -1.751006
O      -0.169036   -1.720448   -2.944053
C       0.804771   -0.616850   -1.027435
O       1.520888    0.199543   -1.916532
H      -0.176135    1.483294   -1.532772
H       0.313651    0.655387    0.711444
H      -0.928585   -1.313346    1.289507
H      -2.197556   -0.437050    0.416653
H      -0.913959   -2.958804   -0.347212
H      -2.314664   -2.266319   -2.344200
H       1.482674   -1.216496   -0.398059
H       1.362705   -0.167644   -2.800445
