20

C       0.005865    1.751357    0.116215
C      -0.141746    0.247635    0.223763
C      -1.441048   -0.297000   -0.380991
C      -1.527090   -0.112833   -1.827302
C      -1.579963    0.038026   -3.018554
N       1.086489   -0.537042    0.009338
C       0.441778   -0.549139    1.341621
C       1.299484   -0.002296    2.460970
O       2.416316   -0.844886    2.690632
H       0.997142    2.075940    0.433909
H      -0.132293    2.063453   -0.923777
H      -0.745732    2.264446    0.726666
H      -1.533640   -1.364718   -0.145358
H      -2.295553    0.196572    0.101023
H      -1.632934    0.169572   -4.070922
H       0.883147   -1.392386   -0.501999
H      -0.095905   -1.457457    1.612231
H       1.617019    1.025256    2.238085
H       0.731022    0.021263    3.396859
H       2.860064   -0.925274    1.837447
