13

C       0.044987    1.355581   -0.129802
C       1.530270    1.846337    0.099711
C       2.124875    0.573280    0.622088
C       1.167320   -0.362364    0.655576
O      -0.072790   -0.071277    0.258676
O       1.637333   -1.528298    1.115327
C       2.974293   -1.211657    1.358330
N       3.305711    0.008902    1.084224
H      -0.673667    1.901965    0.483328
H      -0.256379    1.415496   -1.176950
H       1.976450    2.196743   -0.837129
H       1.562468    2.679295    0.810114
H       3.577852   -2.015106    1.745318
