17

C       0.026658    1.412487   -0.322986
N      -0.029821    0.034207    0.160067
C      -1.375961   -0.529784    0.204548
C      -2.054171   -0.544296   -1.125022
N      -2.525288   -0.515896   -2.180160
C      -1.362571   -1.883909    0.762353
C      -1.349991   -2.995932    1.221106
C      -1.358558   -4.369804    1.728867
O      -2.518531   -5.096101    1.359636
H       1.070374    1.735195   -0.333687
H      -0.396618    1.558209   -1.328816
H      -0.516755    2.060935    0.373037
H       0.563168   -0.568308   -0.401010
H      -1.978402    0.122825    0.852735
H      -0.437411   -4.878398    1.402685
H      -1.344490   -4.362572    2.824138
H      -2.602204   -5.049040    0.401242
