18

N      -0.128694    1.229518    0.451540
C      -0.131299   -0.120825    0.132255
C      -1.126848   -0.985897   -0.232574
C      -0.446049   -2.221505   -0.537657
C       0.872682   -2.014804   -0.321539
O       1.081640   -0.717500    0.089987
C      -2.576060   -0.687882   -0.318409
C      -3.576309   -1.534136    0.433312
C      -3.316242   -0.118935    0.879325
H       0.547544    1.464919    1.167822
H      -1.052298    1.555296    0.704118
H      -0.906992   -3.141634   -0.863251
H       1.756938   -2.623713   -0.394029
H      -2.927061   -0.321242   -1.281747
H      -4.523363   -1.754784   -0.046321
H      -3.187202   -2.334075    1.053065
H      -2.758138    0.017330    1.799572
H      -4.085285    0.625433    0.703717
