16

C      -0.166619    1.445555   -0.037164
N       0.046775    0.004172    0.016367
C       1.410154   -0.493964   -0.249506
C       0.810456   -0.525595    1.099009
C       1.193789    0.078986    2.464666
O      -0.090058   -0.459550    2.997841
C       0.381366   -1.580215    2.130866
C       1.745701   -1.329979    2.837460
O       2.603552   -1.869249    3.451132
H       0.705112    2.029618    0.299659
H      -0.396895    1.733102   -1.066926
H      -1.021352    1.701265    0.595007
H       1.475981   -1.390730   -0.859149
H       2.195840    0.240989   -0.423836
H       1.487062    1.083147    2.759637
H      -0.257075   -2.453973    2.031358
