15

O      -0.027244   -0.072260   -0.087346
C      -0.044152    1.145019   -0.050297
C       1.186453    1.911658   -0.029134
C       2.220970    2.545412   -0.011641
C       3.377414    3.256088    0.007958
C       4.405935    3.888977    0.025467
C      -1.300931    1.939358   -0.023906
C      -2.493763    1.370094   -0.783566
C      -2.491335    1.324629    0.703341
H       5.311223    4.444519    0.040800
H      -1.186095    3.015862    0.008803
H      -3.134392    2.082352   -1.290110
H      -2.308455    0.442322   -1.312369
H      -2.304388    0.366309    1.173889
H      -3.130293    2.004468    1.254576
