20

C       0.015616    1.535023    0.061940
C       0.054339    0.019187    0.044601
C      -1.167533   -0.621843   -0.592646
C       1.325495   -0.742630   -0.162728
O       2.460142   -0.007048    0.363693
C       1.921389   -0.107011    1.646346
N       2.404367    0.222227    2.755478
C       0.670550   -0.804843    1.208254
C      -0.015819   -1.862122    2.024630
H       0.933092    1.964708    0.466178
H      -0.119262    1.923553   -0.953891
H      -0.824583    1.889576    0.668560
H      -1.333989   -0.195062   -1.587392
H      -1.058543   -1.703803   -0.710733
H      -2.067890   -0.437915    0.003545
H       1.533368   -1.496935   -0.911258
H       3.329884    0.640797    2.647132
H      -0.433562   -1.418894    2.934637
H      -0.832388   -2.339459    1.478984
H       0.690548   -2.638997    2.333674
