18

C       0.453473    1.637241   -0.010530
O       1.566316    1.287194    0.849288
C       1.224915   -0.104035    0.795047
C       0.008617    0.157488   -0.124723
N       0.594465   -0.697946   -1.183427
C       0.926461   -0.113699   -2.492061
C       2.401669    0.217565   -2.386013
C       2.914979   -0.195920   -1.227293
C       1.861428   -0.875918   -0.401176
H      -0.263244    2.279696    0.516489
H       0.780213    2.135681   -0.929224
H       1.209021   -0.580103    1.777375
H      -1.034069   -0.063118    0.110184
H       0.732283   -0.827761   -3.306127
H       0.303779    0.767162   -2.700558
H       2.952187    0.703739   -3.183636
H       3.948060   -0.099965   -0.917560
H       2.104699   -1.924525   -0.179202
