17

C      -0.034771    1.423723   -0.040722
C       0.021382   -0.072222    0.005212
O      -0.298885   -0.708748   -1.210350
C      -0.172042   -2.057210   -0.864842
C      -0.566416   -2.319695    0.591505
C      -0.428648   -0.910757    1.193733
C       1.046472   -0.869907    0.791882
C       0.895971   -2.288820    0.183233
O       1.821187   -3.306565    0.205356
H       0.680886    1.817973   -0.768732
H      -1.035688    1.763710   -0.323926
H       0.206517    1.843310    0.939578
H      -0.379678   -2.762835   -1.658099
H      -1.206004   -3.127270    0.917753
H      -0.925372   -0.520070    2.070964
H       1.907199   -0.466198    1.307681
H       2.410246   -3.198623   -0.550720
