20

C      -0.179587    1.640636   -0.031267
C      -0.043151    0.123053    0.036018
C       0.910740   -0.579798   -1.078075
O       1.471893    0.213907   -2.090315
C       1.860825   -0.890623    0.090017
C       2.583046   -1.775133    1.160760
N       2.096581   -0.546391    1.994852
C       2.595918    0.272070    0.799977
C       0.778938   -0.708786    1.114340
H       0.745014    2.137627   -0.328211
H      -0.938577    1.913488   -0.773640
H      -0.502408    2.046999    0.932137
H      -1.048634   -0.309584    0.014847
H       0.417048   -1.473543   -1.483737
H       0.822954    0.327849   -2.791951
H       2.102887   -2.716117    1.440213
H       3.673893   -1.859679    1.150510
H       3.685561    0.296736    0.709647
H       2.186499    1.278310    0.767511
H       0.209316   -1.572780    1.464337
