17

C       0.122513    1.700665   -0.139615
C       0.024052    0.180567    0.045100
C       0.605975   -0.576692   -1.151153
O      -0.130736   -0.209518   -2.308183
C       0.719011   -0.256400    1.315551
C      -0.001217   -0.454478    2.578528
O       0.427710   -1.572020    1.797823
H       1.169739    2.024720   -0.173881
H      -0.350187    1.997636   -1.077686
H      -0.365641    2.232138    0.683126
H      -1.032199   -0.105670    0.123037
H       1.674460   -0.323085   -1.262388
H       0.537728   -1.656981   -0.957822
H       0.218475   -0.701818   -3.056288
H       1.778193    0.006806    1.378097
H       0.514736   -0.321427    3.528460
H      -1.078343   -0.293710    2.609446
