21

C       0.013104    1.561198   -0.216671
C       0.054724    0.063477    0.000674
C       1.351145   -0.705100   -0.071724
C       0.627361   -0.575691    1.249976
C       1.244639    0.197553    2.359012
C       0.608135    1.166516    3.401766
C       2.144286    1.234701    3.522421
C       2.220280   -0.305632    3.463529
O       2.240170    1.268860    2.043504
H       0.881086    2.050903    0.229271
H      -0.004543    1.792513   -1.287695
H      -0.886876    1.999699    0.229824
H      -0.809013   -0.463408   -0.398759
H       1.370838   -1.671886   -0.562569
H       2.262596   -0.124927   -0.170248
H       0.108556   -1.459965    1.612119
H       0.129901    2.052561    2.983305
H       0.045611    0.727422    4.229891
H       2.765960    1.938577    4.074576
H       1.801697   -0.875978    4.297063
H       3.162909   -0.712057    3.095096
