14

O      -0.080555   -0.010768    0.000550
C      -0.002281    1.197227    0.009659
C       1.262897    1.937823    0.001632
C       1.347089    3.278926    0.011524
C       2.762856    3.768604   -0.000548
C       3.591122    2.465425   -0.019918
O       4.789680    2.401107   -0.035742
C       2.615750    1.277394   -0.018995
H      -0.912552    1.837373    0.024832
H       0.488259    3.942128    0.026344
H       3.004202    4.387262   -0.874623
H       3.023833    4.373324    0.877639
H       2.794855    0.631902    0.848651
H       2.775259    0.646251   -0.900897
