17

C       0.140406    1.481635   -0.104328
C      -0.034645   -0.003721    0.091260
C      -0.757300   -0.790661   -1.095847
C      -0.793816   -2.375263   -1.030651
C      -0.828532   -2.091144    0.462025
C       0.315772   -2.098741    1.186101
C       0.885688   -0.714389    1.074499
O       1.934190   -0.286799    1.496298
C      -1.375218   -0.681548    0.252307
H       1.102581    1.690147   -0.581899
H      -0.652683    1.910253   -0.723436
H       0.139294    1.996786    0.861223
H      -1.006566   -0.232305   -1.994733
H      -1.733073   -2.691179   -1.496601
H       0.044714   -2.966728   -1.406601
H       1.001957   -2.938055    1.242922
H      -2.293425   -0.232004    0.605668
