23

C      -0.208356    1.551657   -0.010556
C       0.044044    0.044370    0.011978
C       0.896539   -0.492930   -1.194777
C       1.997932   -1.347930   -0.509077
C       1.211641   -1.904104    0.698009
C       0.824885   -0.513499    1.244635
C       2.167841    0.218661    1.310534
C       3.445979   -0.551129    1.543912
C       2.955520   -0.340625    0.133956
H       0.725444    2.121047   -0.052884
H      -0.798864    1.830414   -0.890118
H      -0.763519    1.878903    0.876067
H      -0.932883   -0.454433   -0.000448
H       0.286489   -1.095829   -1.874848
H       1.328724    0.323087   -1.783513
H       2.467402   -2.088000   -1.160968
H       0.336393   -2.483407    0.389930
H       1.798037   -2.519839    1.380822
H       0.243155   -0.505195    2.169960
H       2.168361    1.278048    1.537869
H       4.300074    0.052752    1.833144
H       3.442655   -1.532140    2.004691
H       3.523734    0.307833   -0.525087
