15

C      -0.012823    1.360049   -0.044599
N       0.021931   -0.088026    0.041431
N       0.046008   -0.810209   -1.095021
C       0.076141   -2.084257   -0.695679
O       0.106121   -3.095043   -1.584265
C       0.072090   -2.204177    0.698179
C       0.036500   -0.888235    1.148417
C       0.016130   -0.379151    2.516246
O       0.029930   -1.086989    3.498654
H       0.865762    1.805741    0.430886
H      -0.013842    1.613377   -1.103907
H      -0.916622    1.762405    0.422199
H       0.100780   -2.703871   -2.466998
H       0.091370   -3.093887    1.303269
H      -0.013132    0.728382    2.610071
