13

C      -0.038177    1.475985   -0.084498
C      -0.046909   -0.020380    0.081170
O      -0.098117   -0.622727    1.111550
N       0.014043   -0.750413   -1.165503
N       0.072745   -0.141816   -2.355818
N       0.116416   -1.083623   -3.246988
C       0.081360   -2.257804   -2.546225
O       0.109435   -3.451971   -3.126193
N       0.017180   -2.091896   -1.242566
H       0.867323    1.802017   -0.602169
H      -0.886666    1.802679   -0.690716
H      -0.088039    1.920913    0.908435
H       0.156568   -3.313096   -4.080871
