18

O      -0.020738    1.254778    0.025176
N       0.019310   -0.143413   -0.098365
C      -1.140919   -0.666821   -0.051858
C      -2.490115   -0.029547    0.176049
C      -3.314131   -1.132577    0.897173
C      -2.625681   -2.450590    0.558714
C      -2.364438   -2.730179   -0.903670
C      -1.261355   -2.144710   -0.055136
O      -0.117757   -2.899153    0.151785
H       0.913031    1.489748    0.004472
H      -2.393759    0.888585    0.758112
H      -2.937922    0.253418   -0.783718
H      -3.280833   -0.970965    1.979763
H      -4.367832   -1.116697    0.599130
H      -2.736971   -3.298040    1.224946
H      -2.204455   -3.768798   -1.171542
H      -2.847547   -2.132853   -1.671185
H       0.584585   -2.266748    0.353473
