19

O       0.714406    0.618541   -0.750829
C       0.003261   -0.239430    0.101008
C       0.092022   -0.046961    1.644262
C      -1.411269   -0.344226    1.699730
C      -1.549878   -0.128929    0.185481
C      -2.128113   -1.466440    2.419137
C      -1.644676   -1.523729    3.863966
O      -1.879779   -0.100143    4.047036
C      -2.430798   -0.011542    2.728705
H       0.501534    1.525711   -0.506646
H       0.304142   -1.250904   -0.184734
H       0.773330   -0.700961    2.193543
H       0.313885    0.992788    1.911589
H      -1.891652    0.883659   -0.061743
H      -2.138941   -0.847035   -0.390869
H      -2.712645   -2.220014    1.907056
H      -2.298300   -2.105720    4.523318
H      -0.598417   -1.799536    4.043356
H      -3.305404    0.613822    2.582278
