21

C       0.040716    1.353652   -0.067507
O       0.048350   -0.052033   -0.019861
C       0.681030   -0.557297    1.136004
C       0.661780   -2.078563    1.065208
C       1.292212   -2.733585    2.287217
C       1.323017   -4.273842    2.240940
O       2.553322   -4.600006    2.867415
C       3.428847   -3.579269    2.466651
O       2.678603   -2.381092    2.409208
H       1.061074    1.769272   -0.068357
H      -0.461001    1.648329   -0.992606
H      -0.503531    1.790062    0.785665
H       1.719673   -0.197518    1.202774
H       0.157553   -0.208932    2.044457
H      -0.378259   -2.416296    0.972571
H       1.190654   -2.402493    0.161673
H       0.781477   -2.392556    3.199221
H       0.512973   -4.747207    2.798822
H       1.302380   -4.633531    1.199680
H       4.226437   -3.484262    3.210416
H       3.862259   -3.799585    1.473796
