17

C      -0.095543   -1.177489    0.318946
C      -0.071298    0.006032    0.114353
C      -0.018842    1.443778   -0.144950
C       1.382573    1.993641   -0.164373
N       2.167828    2.295618    1.048824
C       1.891240    3.366091    0.052355
C       2.875103    3.197968   -1.150659
N       3.763807    2.042640   -0.881946
C       2.381429    1.819552   -1.364082
H      -0.116290   -2.222268    0.507029
H      -0.503837    1.656051   -1.108054
H      -0.605040    1.980920    0.613020
H       1.496048    2.428041    1.806599
H       1.366284    4.273769    0.321653
H       3.133530    3.969394   -1.863822
H       4.367910    1.951221   -1.699994
H       2.169454    1.278276   -2.277057
