27

C      -0.057792    1.620206   -0.115685
C       0.002669    0.089658   -0.109620
C      -1.368569   -0.554814    0.126069
C      -1.370936   -2.097143    0.123706
C      -0.719321   -2.662169    1.395724
C      -2.807944   -2.630392   -0.085530
O      -3.381767   -2.090541   -1.279161
C      -2.919861   -4.161864   -0.085051
C      -4.352607   -4.657849   -0.301165
H       0.927432    2.059882   -0.300966
H      -0.738691    1.985513   -0.892472
H      -0.418749    2.005245    0.844633
H       0.405005   -0.263027   -1.069142
H       0.717349   -0.237521    0.655682
H      -1.777304   -0.201485    1.084373
H      -2.061016   -0.209460   -0.648182
H      -0.779362   -2.435819   -0.743686
H      -1.350631   -2.472135    2.272439
H      -0.547958   -3.739718    1.333154
H       0.249995   -2.191619    1.582406
H      -3.443806   -2.232483    0.718238
H      -2.862994   -2.421682   -2.021474
H      -2.261633   -4.562290   -0.871373
H      -2.536576   -4.555252    0.861947
H      -4.390789   -5.750937   -0.333628
H      -5.008235   -4.324600    0.511119
H      -4.763821   -4.267713   -1.235160
