21

C       0.248614    1.608301    0.096349
C       0.169126    0.090100    0.056064
C       0.707443   -0.566328   -1.220944
C       1.157185   -1.945094   -0.715238
C       2.168189   -2.668490   -1.614593
C       2.503435   -4.052826   -1.104269
O       3.613874   -4.456716   -0.875940
C       1.694197   -1.585014    0.682060
O       0.957883   -0.452180    1.125820
H       1.278621    1.942980   -0.062181
H      -0.386882    2.049054   -0.678932
H      -0.087121    1.981816    1.067660
H      -0.878392   -0.218964    0.208066
H      -0.039176   -0.619440   -2.017710
H       1.569619   -0.003113   -1.599972
H       0.268762   -2.580370   -0.598652
H       1.730380   -2.790441   -2.616048
H       3.095792   -2.096359   -1.715566
H       1.612648   -4.706804   -0.944674
H       1.575901   -2.399498    1.406861
H       2.766232   -1.338165    0.630863
