18

N      -0.129802    1.128278   -0.569739
C      -0.018089   -0.079007   -0.169899
N      -1.112839   -0.928927   -0.191328
C      -1.405747   -1.850589    0.913341
C      -0.553239   -3.123392    0.885678
N       0.875733   -2.951775    1.101539
C       1.591143   -2.160699    0.106706
C       1.355918   -0.652734    0.194693
O       2.243731    0.108988    0.505864
H       0.791981    1.568507   -0.542891
H      -1.925848   -0.406678   -0.494220
H      -1.300298   -1.357632    1.893405
H      -2.458478   -2.134226    0.813624
H      -0.928154   -3.807315    1.656092
H      -0.690552   -3.616637   -0.084615
H       1.069567   -2.611494    2.037653
H       2.667801   -2.315253    0.223185
H       1.293766   -2.513741   -0.888370
