13

C      -0.112782    1.438142    0.095415
C      -0.495636    0.072140   -0.398902
O      -0.688016   -0.259628   -1.532753
O      -0.599991   -0.785211    0.677051
C      -0.935808   -2.085591    0.499639
N      -1.017026   -2.841673    1.561025
O      -1.364629   -4.073259    1.089940
N      -1.498406   -4.076493   -0.269270
C      -1.238892   -2.860183   -0.660030
H      -0.029772    2.117262   -0.751519
H      -0.864931    1.802900    0.800501
H       0.838023    1.386097    0.633185
H      -1.268766   -2.569142   -1.693642
