21

C       0.810237    1.279813   -0.159223
C       0.147441   -0.070888    0.123544
C       0.983606   -0.949310    1.065726
C       0.301371   -2.245191    1.460268
C       0.033943   -3.265552    0.351245
C       1.251775   -3.757788   -0.282119
C       2.265998   -4.152155   -0.792618
C       0.391103   -2.733329    2.842613
O      -0.801770   -2.099857    2.364327
H       1.791345    1.150328   -0.629641
H       0.197541    1.890208   -0.829705
H       0.959573    1.848185    0.765488
H      -0.840598    0.086066    0.572377
H      -0.019743   -0.594517   -0.825592
H       1.947582   -1.186687    0.599206
H       1.200380   -0.386703    1.980893
H      -0.532748   -4.098271    0.782121
H      -0.617850   -2.811162   -0.405167
H       3.156895   -4.508002   -1.247729
H       0.303426   -3.799288    3.049569
H       0.957821   -2.164511    3.578290
