18

N       0.436612    0.452554    1.511580
C       0.026175   -0.055989    0.432526
O      -0.844821   -1.083194    0.459081
C      -1.150127   -1.702948   -0.793798
C      -2.457416   -2.445398   -0.618179
C      -2.916135   -3.590016   -1.566408
C      -1.872079   -4.555420   -0.953425
C      -2.576241   -3.773947    0.181250
O      -3.866407   -4.012347   -0.513228
H       1.064599    1.228599    1.313214
H       0.298378    0.261631   -0.584511
H      -1.259039   -0.938397   -1.575977
H      -0.324543   -2.362841   -1.083711
H      -3.270236   -1.756374   -0.378633
H      -3.293531   -3.529513   -2.587845
H      -2.145396   -5.608991   -1.011856
H      -0.809430   -4.388904   -1.139820
H      -2.546342   -3.929682    1.258722
