15

N       0.022188    1.238315   -0.313906
C       0.021696    0.029217   -0.012673
O       1.119663   -0.864976    0.225839
C       0.176349   -1.703732    1.006285
C      -0.757474   -2.992875    0.893170
N      -1.858370   -1.911945    1.162399
C      -0.950024   -1.130091    0.209457
C      -0.952041   -1.996673   -1.077013
C      -0.837425   -3.236822   -0.604711
H       0.970002    1.610071   -0.394034
H       0.242715   -1.381220    2.044637
H      -0.713126   -3.818938    1.602244
H      -2.728840   -2.183982    0.700192
H      -1.014659   -1.610640   -2.083496
H      -0.777638   -4.189567   -1.109558
