14

O       0.574163    0.594278   -0.837583
C      -0.113861    0.282743    0.350144
C      -1.465515   -0.340712    0.109028
C      -1.953004   -0.742880   -1.090209
C      -3.258785   -1.305400   -1.074089
N      -3.995111   -1.459833   -0.010934
C      -3.499270   -1.064235    1.209937
O      -4.037678   -1.146625    2.269791
O      -2.179783   -0.475657    1.223304
H       0.163644    1.371503   -1.230559
H       0.505301   -0.437144    0.898988
H      -0.245632    1.149440    1.014340
H      -1.365104   -0.648105   -1.990370
H      -3.701461   -1.640723   -2.012644
