18

C      -0.104132    1.473428   -0.084615
C       0.067512   -0.008352    0.029751
C       0.838011   -0.836451   -0.949021
C       1.090877   -2.213304   -0.362903
C      -0.302611   -2.022016    0.257708
C      -0.175844   -0.860330    1.279809
C       0.798279   -0.917028    2.353573
C       1.617150   -0.967639    3.233304
N      -0.663035   -0.985821   -0.851084
H       0.699157    1.997619    0.444589
H      -0.082504    1.784597   -1.133343
H      -1.060574    1.792080    0.342736
H       1.296712   -0.388128   -1.823651
H       1.070771   -2.977823   -1.143567
H       1.941941   -2.372954    0.305007
H      -0.970679   -2.857520    0.454471
H      -1.170726   -0.620940    1.672249
H       2.336600   -1.009570    4.013299
