17

C      -0.036107    1.359897    0.520209
N       0.015785    0.103044   -0.177581
C      -1.069106   -0.823470   -0.501318
C       0.032965   -1.891668   -0.838738
N      -0.092859   -3.156311   -0.137756
C       0.180880   -2.126472   -2.274856
N       0.302076   -2.298856   -3.410708
C       1.031040   -0.825095   -0.298676
N       2.263690   -0.916410   -0.041229
H       0.973373    1.776329    0.576557
H      -0.666758    2.074134   -0.019477
H      -0.425647    1.255854    1.543349
H      -1.680373   -1.128495    0.357724
H      -1.716263   -0.510031   -1.325137
H       0.700778   -3.747675   -0.370223
H      -0.033375   -2.986007    0.862961
H       2.644182   -0.071124    0.386360
