15

O      -0.030000    0.495086    1.175885
C      -0.138170    0.293974   -0.209161
C      -1.422449   -0.469827   -0.605769
O      -1.649697   -0.471754   -1.995970
C      -1.399043   -1.864299   -0.031049
N      -0.888830   -2.241381    1.109291
C      -1.135467   -3.591513    1.101427
N      -1.746589   -4.034443    0.039441
O      -1.926316   -2.872277   -0.727707
H      -0.027405   -0.379958    1.591193
H      -0.188214    1.277226   -0.685386
H       0.734187   -0.237539   -0.628754
H      -2.272516    0.061182   -0.160742
H      -0.943683   -0.966866   -2.427040
H      -0.850115   -4.255225    1.904374
