22

C      -0.306843    1.351756   -1.238189
N      -0.211541    0.369421   -0.166170
C       0.707660    0.816478    0.877476
C      -1.511484   -0.052998    0.342021
C      -1.599869   -1.593897    0.586905
C      -3.057817   -1.986075    0.885334
N      -1.104754   -2.372512   -0.552268
C      -0.783694   -1.961475    1.766825
N      -0.168576   -2.231792    2.707401
H       0.691178    1.545752   -1.643538
H      -0.930410    0.965119   -2.049711
H      -0.729280    2.319188   -0.908955
H       0.375836    1.756333    1.356363
H       0.809018    0.054302    1.650799
H       1.696102    0.989937    0.441335
H      -1.802868    0.491387    1.255843
H      -2.271160    0.167134   -0.415646
H      -3.688348   -1.728150    0.027599
H      -3.131445   -3.060792    1.062843
H      -3.436248   -1.456244    1.762882
H      -1.792666   -2.326451   -1.299705
H      -0.267664   -1.902930   -0.894659
