21

C       0.429578    1.470448   -0.129024
C       0.173699   -0.027684   -0.319638
C      -1.273799   -0.426918   -0.037493
C      -1.522545   -1.944456    0.200775
C      -1.878861   -1.518347    1.636750
O      -1.671169   -0.123584    1.327505
C      -2.227010    0.176950   -1.078540
C      -3.442427    0.917252   -0.567031
O      -1.994460    0.027123   -2.257241
H       1.488585    1.704205   -0.270298
H      -0.138750    2.066799   -0.850383
H       0.142514    1.784093    0.878816
H       0.402274   -0.331801   -1.346444
H       0.822295   -0.604177    0.350123
H      -2.337876   -2.379759   -0.378813
H      -0.633748   -2.567379    0.090248
H      -2.909663   -1.716007    1.953811
H      -1.195789   -1.867312    2.419872
H      -4.065661    0.253862    0.042177
H      -3.135524    1.731979    0.096259
H      -4.017189    1.301262   -1.410550
