19

O      -0.040216    1.456350    0.094968
C      -0.009091    0.038743    0.077395
C       0.506157   -0.619887    1.377141
C      -0.681476   -0.365679    2.351472
C      -1.419615   -1.345685    1.388617
C      -0.046182   -2.068665    1.233644
C      -1.443331   -0.523182    0.112138
C      -2.601532    0.121543   -0.496989
O      -2.015176   -1.058078   -1.076521
H       0.867688    1.774158    0.058746
H       0.520904   -0.330785   -0.811348
H       1.542847   -0.420061    1.653223
H      -0.515510   -0.800275    3.339441
H      -1.055657    0.656933    2.434908
H      -2.335997   -1.868346    1.660220
H       0.143012   -2.610941    0.302571
H       0.200341   -2.694354    2.094061
H      -3.589793   -0.018194   -0.060009
H      -2.463717    1.038815   -1.064914
