18

O      -0.547871    1.526506    0.677183
C      -0.775607    0.168139    0.913872
C      -0.900619   -0.593354   -0.398409
O      -0.711789   -0.009176   -1.450187
C      -1.253174   -2.026639   -0.366496
C      -1.302689   -2.968177   -1.578290
C      -2.572623   -3.652226   -0.974676
C      -2.497396   -2.693492    0.221254
N      -1.225180   -2.753539    0.902527
H      -0.451971    1.599924   -0.286314
H       0.041132   -0.294701    1.491072
H      -1.686314    0.014627    1.511968
H      -1.512013   -2.430462   -2.503272
H      -0.414107   -3.590433   -1.721380
H      -3.460221   -3.500111   -1.591552
H      -2.499961   -4.714336   -0.720176
H      -3.329302   -2.230080    0.739720
H      -0.762406   -3.656955    0.815451
