19

O      -0.055030    1.428335    0.106477
C       0.021971    0.013599    0.003705
C       0.832181   -0.576200    1.181085
O       0.619467   -1.968931    1.376823
C      -0.755621   -2.317057    1.339589
C      -1.312474   -2.075216   -0.064656
C      -1.409881   -0.543215    0.018082
C      -2.053557   -0.392597    1.403545
O      -1.533516   -1.490143    2.181565
H       0.839554    1.784160    0.102825
H       0.490104   -0.276504   -0.949624
H       1.907507   -0.453708    1.015182
H       0.560607   -0.017692    2.086859
H      -0.808548   -3.342098    1.710072
H      -0.643954   -2.446805   -0.843404
H      -2.297586   -2.537049   -0.181122
H      -2.001521   -0.075590   -0.771514
H      -1.796040    0.551892    1.890934
H      -3.146239   -0.477034    1.349244
