15

O      -0.124177    1.362483   -0.020955
C      -0.067778   -0.031078    0.038910
C       1.026386   -0.612343   -0.715576
N       1.921130   -1.050515   -1.303156
C      -0.469539   -0.818047    1.273758
C      -1.543287   -0.040660    2.044220
C      -2.441511   -0.039765    0.765796
C      -1.351614   -0.815515    0.015572
H       0.636590    1.719551    0.452038
H       0.176124   -1.593704    1.667563
H      -1.973441   -0.629441    2.856025
H      -1.240840    0.934767    2.432562
H      -3.347006   -0.634599    0.896386
H      -2.703949    0.933245    0.347465
H      -1.508319   -1.590165   -0.724757
