20

C       0.284268    1.532533    0.173539
C       0.001225    0.030234    0.024085
C       0.506314   -0.745976    1.249540
O      -1.405251   -0.184245   -0.139842
C       0.656635   -0.507861   -1.250618
C       0.275751   -1.924985   -1.737526
O      -0.087469   -1.425577   -3.040380
C       0.093874   -0.058764   -2.618832
H       1.357174    1.730003    0.265509
H      -0.098486    2.083799   -0.689978
H      -0.204002    1.928517    1.071789
H       0.021098   -0.381448    2.162637
H       0.281130   -1.811502    1.149525
H       1.587044   -0.628790    1.379434
H      -1.850031    0.144510    0.648015
H       1.737860   -0.366870   -1.175191
H       1.086327   -2.661374   -1.792280
H      -0.582887   -2.361813   -1.214476
H      -0.859676    0.478278   -2.555685
H       0.779591    0.486018   -3.278608
