15

O       0.091812    1.495715    0.050274
C      -0.007799    0.101015   -0.034355
C      -1.464423   -0.426761   -0.128264
C      -1.457042   -1.446670   -1.276810
O      -2.347762   -2.211310   -1.554648
C      -0.148222   -1.301686   -1.965015
C       0.630387   -0.437777   -1.307077
C       0.685993   -0.527124    1.174478
O       1.244700    0.146778    2.002533
H       0.591950    1.677575    0.863261
H      -1.862538   -0.871755    0.787609
H      -2.102777    0.421429   -0.391450
H       0.087640   -1.830481   -2.879777
H       1.625352   -0.113235   -1.590713
H       0.635879   -1.631784    1.241806
