17

C       0.065681    1.498989   -0.086117
C      -0.060811    0.002750    0.070682
C      -1.290771   -0.652816   -0.556596
O      -1.841282   -1.713078    0.200509
C      -0.888738   -2.668366    0.643266
C       0.039009   -2.012362    1.663303
O       0.292034   -2.481607    2.746632
C       0.592366   -0.693320    1.206313
O       1.147723   -0.736093   -0.123601
H       1.021648    1.843986    0.314372
H       0.018301    1.778035   -1.144615
H      -0.746306    2.014423    0.436249
H      -2.094142    0.082166   -0.658882
H      -1.008270   -0.996998   -1.565264
H      -1.438553   -3.476218    1.128554
H      -0.301720   -3.075654   -0.194711
H       1.168918   -0.137511    1.943450
