13

N      -0.038900    1.304257   -0.189268
C      -0.007433    0.043626   -0.012993
N       1.199103   -0.670399    0.199164
C       1.165976   -1.924706    0.368411
O       0.065115   -2.724611    0.374317
C      -1.128625   -2.101859    0.175966
C      -1.240541   -0.772376   -0.017322
C      -2.512485   -0.179179   -0.218994
C      -3.597789    0.311743   -0.388971
H       0.916287    1.666857   -0.148865
H       2.061762   -2.515433    0.534250
H      -1.957893   -2.795399    0.192951
H      -4.547023    0.762515   -0.540560
