23

C      -0.216343    1.599065    0.054276
C       0.037657    0.086433    0.034453
C      -1.171593   -0.637686   -0.560829
C       1.317924   -0.670827   -0.324390
C       2.678838   -0.152512    0.197059
C       2.641781    1.154325    0.923824
C       2.107128   -0.085891    1.605930
C       0.760237   -0.704782    1.100944
C       0.190729   -1.832222    1.918227
H       0.274070    2.113492   -0.778727
H      -1.290995    1.787315   -0.041845
H       0.101815    2.067074    0.986473
H      -1.399521   -0.224068   -1.549701
H      -1.006013   -1.710890   -0.683507
H      -2.059702   -0.502216    0.067268
H       1.270939   -1.453246   -1.073907
H       3.607774   -0.609972   -0.120307
H       3.609865    1.452301    1.320146
H       2.041029    1.991669    0.604983
H       2.560472   -0.447457    2.521213
H      -0.172720   -1.461367    2.885898
H      -0.643661   -2.333652    1.422928
H       0.956371   -2.588767    2.129549
