14

O      -0.037479    0.046628    0.256533
C      -0.040214    1.228017    0.084874
O      -1.148796    1.972864   -0.142014
C      -0.750806    3.333055   -0.342231
O       0.542941    3.466594    0.190328
C       1.150107    2.191793    0.088324
C       2.090326    1.927126    1.265710
C       3.303902    2.737448    1.211929
N       4.265381    3.375154    1.160710
H      -0.775218    3.545255   -1.420878
H      -1.435595    3.989002    0.198876
H       1.696913    2.083235   -0.861498
H       1.560348    2.127716    2.202349
H       2.353806    0.864163    1.254340
