19

C       0.290294    1.110091    0.506964
N      -0.388114    0.274878   -0.475839
C       0.473441   -0.369269   -1.410958
C       1.294176   -1.625537   -1.132220
C       1.309993   -2.315410    0.212764
C       0.024313   -1.693099   -1.991906
O      -1.141644   -2.213747   -1.420103
C       0.156353   -1.931360   -3.412139
N       0.277601   -2.147329   -4.542341
H       1.027441    0.578026    1.130578
H       0.816822    1.922465   -0.006655
H      -0.455000    1.564414    1.165587
H      -1.022535   -0.388005   -0.050074
H       0.921302    0.320582   -2.122694
H       2.217694   -1.702928   -1.699518
H       0.394404   -2.126347    0.777111
H       1.419510   -3.400430    0.104430
H       2.154277   -1.959455    0.810750
H      -1.067442   -3.174701   -1.392845
