15

O       0.095973   -0.014958   -0.033955
C       0.025561    1.165751    0.073114
C      -1.085350    2.237820    0.042686
C      -1.372621    2.814345    1.437684
C      -0.063741    3.136694    2.142074
O       0.781033    2.025664    2.454656
C       1.191415    2.915860    1.401124
C       0.987703    2.376775   -0.008241
O      -0.116465    3.094738   -0.634734
H      -1.983462    2.059866   -0.553081
H      -1.953885    3.735591    1.321139
H      -1.968919    2.113838    2.033352
H      -0.097021    3.903604    2.913842
H       2.080741    3.502407    1.617522
H       1.880580    2.343919   -0.633797
