18

C       0.629596    1.308301   -0.096931
C      -0.118185   -0.012844    0.003612
O      -1.516745    0.163459    0.037152
C       0.421857   -1.123880   -0.973962
C       1.179397   -1.678155    0.210816
N       2.273226   -2.284792    0.410087
O       2.852808   -2.716257   -0.794509
C       0.354920   -0.903015    1.211817
O       0.969433   -0.333315    2.330609
H       1.713023    1.154453   -0.120045
H       0.354350    1.837241   -1.017418
H       0.390557    1.941219    0.761262
H      -1.767366    0.757004   -0.678947
H      -0.383752   -1.780615   -1.314426
H       1.027725   -0.812343   -1.827641
H       3.660680   -3.144624   -0.490841
H      -0.516745   -1.476308    1.552622
H       1.919810   -0.334781    2.171690
