19

O       0.224767    1.387341   -0.112409
C       0.094029   -0.015212   -0.045746
C       0.616164   -0.571882   -1.374350
O      -0.553208   -0.984703   -2.124104
C      -1.779730   -0.688566   -1.423093
C      -1.313666   -0.680455    0.002724
C      -1.483337   -0.090879    1.432598
C      -0.007563   -0.670898    1.371358
C      -0.631454   -1.909044    0.686324
H       0.041281    1.764521    0.752542
H       1.134505    0.223231   -1.917565
H       1.285710   -1.432141   -1.284224
H      -2.181855    0.289637   -1.724939
H      -2.497259   -1.469678   -1.689510
H      -1.619786    0.988572    1.521421
H      -2.167190   -0.617724    2.102079
H       0.728575   -0.658806    2.178802
H      -1.289213   -2.513663    1.314406
H       0.020096   -2.537513    0.080804
