15

O      -0.275400    1.403343    0.243332
C      -0.064447    0.078416    0.079386
C       0.153584   -0.572252   -1.112119
N       0.330649   -1.897536   -0.739616
C       0.193145   -1.970118    0.605049
N      -0.034553   -0.782444    1.136268
C       0.233844   -0.129894   -2.508037
C       1.335219   -0.511479   -3.413313
O       0.065448   -1.166554   -3.493628
H      -0.419077    1.539013    1.187825
H       0.398946   -2.656962   -1.397654
H       0.261957   -2.899262    1.149235
H      -0.293607    0.798285   -2.722305
H       1.584768    0.125549   -4.260820
H       2.153069   -1.118794   -3.028382
