17

O       0.125431    1.259344   -0.113884
C       0.029391   -0.107360   -0.064850
C       0.359996   -1.161229   -1.133693
C      -0.076861   -1.967752    0.108541
C       0.586224   -0.955711    1.111440
C      -0.697764   -0.815209    1.952889
C      -1.219253   -0.977883    0.510258
C      -2.594725   -0.933600   -0.031675
O      -2.915764   -1.359417   -1.119017
H      -0.291568    1.571580   -0.925073
H      -0.299429   -1.217616   -2.002198
H       1.414286   -1.236255   -1.419433
H      -0.130518   -3.046680    0.232165
H       1.627339   -0.974416    1.435748
H      -0.922933   -1.632290    2.644941
H      -0.861284    0.154653    2.430129
H      -3.342984   -0.436996    0.629099
