19

C      -0.122040    1.537583   -0.027642
C       1.307779    1.072388    0.107594
C       0.196502    0.066052   -0.031540
N      -0.156667   -0.679874    1.148377
C       0.355623   -2.083195    1.215242
C      -0.857197   -2.535550    2.088772
N      -1.245411   -3.705789    1.237743
C      -0.737052   -2.697011    0.253864
C      -1.394283   -1.513983    1.050551
H      -0.603732    1.924947    0.862636
H      -0.433337    1.999890   -0.957566
H       1.982574    1.214006   -0.729076
H       1.765443    1.154449    1.086661
H       0.120039   -0.447960   -0.993283
H       1.413612   -2.335323    1.315022
H      -0.959210   -2.503359    3.172963
H      -0.564223   -4.461724    1.348700
H      -0.707121   -2.888119   -0.819188
H      -2.399974   -1.105176    0.956948
