16

C       0.989363    1.700045   -0.285962
C       0.015275    0.730298    0.324700
O       0.300579   -0.656151    0.212016
C       0.304035   -0.110370    1.523016
C       1.624825   -0.029330    2.226117
O       2.691043   -0.134401    1.676992
C       1.561600    0.177034    3.759153
C       0.531069    1.114319    4.189623
N      -0.292096    1.862735    4.502472
H       2.018822    1.406970   -0.077450
H       0.846812    1.724140   -1.371176
H       0.809314    2.709093    0.098614
H      -1.040231    0.974453    0.189852
H      -0.540427   -0.395435    2.150885
H       1.369544   -0.800190    4.221549
H       2.548518    0.509354    4.089547
