16

C       0.040074    1.515334    0.049657
C      -0.003647    0.020395    0.004775
C      -0.048825   -0.813582   -1.066188
O      -0.086689   -2.098929   -0.678552
N      -0.066649   -2.146851    0.707792
C      -0.020786   -0.896591    1.105783
C       0.055271   -0.571054    2.568696
C       1.480720   -0.172119    2.933381
O       1.809568    0.933389    3.274367
H       0.868303    1.873111    0.669165
H       0.158472    1.934935   -0.952382
H      -0.880597    1.929720    0.476549
H      -0.059681   -0.643845   -2.132139
H      -0.613184    0.253465    2.829773
H      -0.218156   -1.464065    3.140608
H       2.220452   -0.996672    2.834150
