18

O      -0.005227    1.408992    0.098257
C       0.030438    0.002135    0.032404
C      -1.369713   -0.595232   -0.055143
C      -1.408079   -2.114501   -0.097688
C      -2.865913   -2.564967   -0.107299
N      -3.599747   -1.826529    0.907861
C      -3.230021   -0.663215    1.525450
O      -3.873957   -0.135480    2.396878
O      -2.049884   -0.112812    1.122477
H      -0.591668    1.633426    0.830868
H       0.595729   -0.263662   -0.867197
H       0.547794   -0.437038    0.901041
H      -1.877971   -0.174422   -0.934443
H      -0.894587   -2.483847   -0.990186
H      -0.891575   -2.513969    0.782219
H      -3.301053   -2.396242   -1.103232
H      -2.942219   -3.637538    0.101660
H      -4.488592   -2.175958    1.226499
