21

C      -0.056147    1.593887    0.063349
C       1.493699    1.453401    0.008154
C       1.764593    0.816131    1.387399
C       0.735517   -0.361265    1.305558
C       1.457088   -1.697413    1.094498
O       2.539563   -1.557391    0.187444
C       2.174043   -0.970362   -1.052436
C       1.232119    0.220046   -0.928260
C      -0.001987    0.047749    0.004864
H      -0.489254    2.065337    0.951069
H      -0.483057    2.029532   -0.843718
H       2.136167    2.278540   -0.301323
H       2.789045    0.461963    1.508730
H       1.537156    1.514818    2.197796
H       0.070219   -0.420868    2.171814
H       1.902620   -2.061726    2.025649
H       0.745255   -2.462693    0.738213
H       3.115376   -0.688716   -1.537479
H       1.685070   -1.724997   -1.694812
H       0.937720    0.554828   -1.927987
H      -0.861973   -0.559628   -0.283362
