13

O       0.089352    1.321081    0.064254
C       0.054824   -0.033361    0.019860
C       0.026977   -0.802573   -1.115363
N      -0.003526   -2.123936   -0.702970
C       0.004570   -2.205618    0.652391
C       0.041118   -0.912498    1.155160
C       0.062332   -0.469183    2.493214
C       0.082148   -0.002345    3.605987
H       0.102778    1.579183    0.994617
H       0.026154   -0.528509   -2.155797
H      -0.027969   -2.912585   -1.323970
H      -0.015528   -3.150895    1.168295
H       0.098526    0.378792    4.596551
