22

C       1.169653    1.190901    0.135669
O       0.722243   -0.167647    0.025178
C       0.522800   -0.808860    1.191148
O       0.713359   -0.313206    2.274430
C      -0.029486   -2.212905    0.962751
N      -0.008194   -3.068030    2.130628
C       1.193859   -3.895453    2.309382
C       2.517183   -3.119481    2.436430
C       0.969815   -4.803495    3.520941
H       2.127873    1.238558    0.658895
H       1.274166    1.553471   -0.886880
H       0.440516    1.793334    0.683275
H      -1.062916   -2.073617    0.610391
H       0.506187   -2.679963    0.130672
H      -0.145172   -2.488471    2.954922
H       1.258347   -4.532501    1.415517
H       2.493139   -2.446566    3.299660
H       3.358519   -3.810162    2.560161
H       2.720629   -2.513795    1.547600
H       0.901679   -4.210807    4.441521
H       0.039664   -5.366851    3.411606
H       1.798464   -5.507473    3.642508
