17

C      -0.062055    1.519723    0.022061
C      -0.026680    0.016497    0.012717
C       0.796284   -0.966994   -0.883111
C       1.986326   -1.020850    0.077061
C       0.735985   -0.972395    0.958376
N      -0.014464   -1.948480    0.007736
C      -1.198638   -0.978853   -0.050207
C      -2.120702   -1.042861    1.075654
N      -2.844052   -1.061422    1.977614
H       0.949217    1.935901    0.078809
H      -0.535920    1.907912   -0.885785
H      -0.628577    1.888562    0.883379
H       0.760400   -1.061513   -1.970054
H       2.546965   -1.958416    0.092657
H       2.647414   -0.151994    0.100503
H       0.631050   -1.072638    2.038909
H      -1.751292   -1.042946   -0.993635
