15

O      -0.010419    0.152429   -0.713019
C      -0.017193    1.228352   -0.194013
C      -1.137385    2.158995    0.285436
C      -0.028028    3.159482    0.825319
C       1.091284    2.189232    0.251841
C      -0.055411    4.470144    0.188484
C      -0.078257    5.533844   -0.369591
C      -0.007510    3.262867    2.279541
C       0.009922    3.311539    3.479809
H      -1.745160    2.572654   -0.522699
H      -1.790083    1.741385    1.054652
H       1.777953    1.789795    1.000867
H       1.662985    2.618895   -0.574073
H      -0.098331    6.481898   -0.847952
H       0.025091    3.371520    4.540112
