20

C      -0.171001    1.487417    0.083118
C       0.029195   -0.013758   -0.016908
C       0.814379   -0.515121   -1.229561
C       1.332230   -1.879337   -0.749744
C       2.569800   -2.416266   -1.463007
C       1.559980   -1.600591    0.766975
O       0.814446   -0.442455    1.111524
C       1.167040   -2.745823    1.607052
N       0.869398   -3.657074    2.252375
H       0.791001    2.007415    0.043850
H      -0.796727    1.842556   -0.741558
H      -0.664423    1.745958    1.023767
H      -0.949934   -0.517900    0.020135
H       0.202780   -0.592073   -2.132107
H       1.651024    0.163310   -1.437831
H       0.521389   -2.610359   -0.840517
H       3.401039   -1.705308   -1.397139
H       2.898682   -3.364508   -1.025858
H       2.362269   -2.593920   -2.522394
H       2.621827   -1.397424    0.963104
