20

C       0.222248    1.513726    0.104622
C      -0.029379    0.042184   -0.035835
C      -0.975079   -0.724633    0.793809
N       0.473491   -0.979649    0.976902
C       0.930134   -1.858135   -0.188632
C       0.345486   -3.271183   -0.224829
C       0.413548   -0.805187   -1.229838
C       2.386937   -1.927560   -0.163857
C       3.586619   -2.001057   -0.169334
H       1.256507    1.762890   -0.155339
H      -0.439713    2.086313   -0.556066
H       0.041883    1.840822    1.132645
H      -1.405000   -0.228142    1.658736
H      -1.618106   -1.480413    0.351370
H      -0.744812   -3.260584   -0.294783
H       0.734617   -3.813017   -1.091667
H       0.632622   -3.817227    0.678166
H      -0.378105   -1.137223   -1.908346
H       1.222160   -0.363419   -1.812479
H       4.646733   -2.061564   -0.162139
