21

C       0.809508    1.357018    0.194550
C      -0.013426    0.096744   -0.059547
C       0.656082   -0.912140   -1.041364
C       1.110211   -1.747403    0.181321
C       0.097777   -0.988143    1.056010
O       1.038476   -3.184021    0.106282
C       2.470204   -3.324874    0.189081
C       2.617951   -1.832658    0.548960
O       3.559028   -1.035236   -0.114474
H       1.858217    1.112079    0.396132
H       0.788132    2.020398   -0.677303
H       0.419637    1.917808    1.051012
H      -1.039055    0.368550   -0.321742
H      -0.069500   -1.479170   -1.630474
H       1.425261   -0.514286   -1.711799
H       0.437374   -0.668085    2.046209
H      -0.822360   -1.568842    1.166196
H       2.775268   -4.064725    0.936818
H       2.921019   -3.587525   -0.779901
H       2.785501   -1.667991    1.616385
H       3.449808   -1.163265   -1.063330
