18

C      -0.008674    1.470776    0.009829
C      -0.040460   -0.047326    0.002113
O      -1.392095   -0.466386    0.012766
C      -1.528458   -1.855685    0.006738
C      -2.985487   -2.264641    0.018380
N      -3.887651   -1.352135    0.032018
O      -5.170736   -1.881256    0.041447
C      -3.238323   -3.667275    0.013197
C      -3.385556   -4.862018    0.008120
H       1.024975    1.829306    0.001847
H      -0.522916    1.868889   -0.869221
H      -0.505989    1.859538    0.902696
H       0.472009   -0.442811   -0.891464
H       0.488890   -0.452178    0.881543
H      -1.050523   -2.305098   -0.882854
H      -1.033804   -2.314390    0.882342
H      -5.717454   -1.087559    0.051026
H      -3.538171   -5.913238    0.003869
