20

C      -0.008436    1.618211    0.072813
C       0.119107    0.101499    0.051427
C       1.182347   -0.606603   -0.776710
C       2.427004   -0.763265    0.043617
N       1.291943   -1.744776    0.197372
C       0.751474   -0.689333    1.227025
C       2.175426   -0.177821    1.403176
C       3.039190   -0.404982    2.604311
C       2.742686    1.004950    2.126776
H       0.951268    2.101417    0.270831
H      -0.379207    1.986274   -0.890107
H      -0.717880    1.942297    0.842552
H      -0.847724   -0.359470   -0.181175
H       1.179299   -0.789428   -1.846571
H       3.375185   -1.063826   -0.389534
H       0.157824   -1.018925    2.079024
H       2.567599   -0.742095    3.522079
H       4.040161   -0.795245    2.450140
H       3.544309    1.563189    1.653398
H       2.073429    1.613717    2.726160
