17

O      -0.033528    1.436291   -0.039413
C       0.085195    0.020074   -0.090632
C      -1.322524   -0.563362   -0.012357
O      -2.104386   -0.073215   -1.076453
C      -1.604808   -2.058271    0.180963
C      -1.126112   -2.556375    1.477318
N      -2.409737   -1.792386    1.469882
C      -2.016063   -0.400424    1.346239
N      -2.220331    0.617490    2.055284
H      -0.475667    1.652551    0.795748
H       0.544761   -0.224511   -1.053613
H       0.730080   -0.364565    0.711485
H      -1.877633    0.865433   -1.143848
H      -2.014071   -2.689417   -0.597533
H      -1.279227   -3.606749    1.702881
H      -0.259794   -2.114171    1.961286
H      -2.767852    0.395267    2.891020
