20

C       0.052475    1.258531   -0.294183
O      -0.085070   -0.011691    0.310956
C      -1.356597   -0.590000    0.176357
C      -2.447133    0.065839    0.994393
C      -1.685658   -1.202300   -1.179825
C      -1.330845   -2.084014    0.007873
C      -0.023110   -2.840790    0.023558
O      -2.389552   -2.757129    0.644130
H       1.106322    1.535361   -0.211512
H      -0.229433    1.235267   -1.356725
H      -0.551029    2.027261    0.207723
H      -2.692921    1.060805    0.608911
H      -3.351148   -0.543330    0.979806
H      -2.120675    0.171341    2.034063
H      -2.721708   -1.186287   -1.501679
H      -0.950240   -1.101378   -1.971226
H       0.786397   -2.234413   -0.383982
H       0.236705   -3.120937    1.049137
H      -0.105078   -3.759450   -0.570550
H      -2.610198   -3.525124    0.105690
