18

N       0.311997    1.567349    0.014900
C       0.120193    0.113896    0.000994
C       0.645373   -0.540644   -1.218450
N       1.078563   -1.011613   -2.181848
C       0.735131   -0.489048    1.242739
C       2.205951   -0.770320    1.418363
C       1.206976   -1.890771    1.592062
C       0.486031   -1.723700    2.931133
N       0.012445   -0.367491    2.509282
H       1.299558    1.780267   -0.095438
H      -0.171909    1.995130   -0.769017
H      -0.958090   -0.077182    0.045098
H       2.791810   -0.828019    0.505926
H       2.736679   -0.368840    2.279043
H       1.222602   -2.778904    0.974568
H      -0.356045   -2.406136    3.080578
H       1.126755   -1.748820    3.820869
H       0.332179    0.400056    3.094149
