15

C      -0.146824    1.503515   -0.002696
C       0.114922    0.029648   -0.004038
O      -0.683484   -0.804890    0.871841
C       0.729739   -0.784514    1.054160
C       1.398738   -1.963980    0.386773
O       1.012416   -1.891546   -0.998180
C       0.398372   -0.702854   -1.281462
N       0.118609   -0.279400   -2.436481
H       0.717773    2.048599   -0.391889
H      -0.998660    1.728715   -0.649783
H      -0.364855    1.848144    1.010524
H       1.102617   -0.379918    1.990711
H       2.491082   -1.903525    0.460830
H       1.061211   -2.925021    0.785698
H       0.428630   -0.939952   -3.151527
