17

C       0.194672    1.579438    0.182718
O       1.441861    1.510050   -0.541894
C       1.348391    0.066447   -0.666251
C       2.490178   -0.656773   -0.022287
C       2.374840   -1.349237    1.111664
C       1.098884   -1.443820    1.864114
O       0.628592   -0.227214    2.488425
C      -0.093359   -0.735162    1.367701
C      -0.014373    0.050895    0.076971
H       0.337731    1.943281    1.204941
H      -0.545074    2.200985   -0.334823
H       1.283626   -0.211256   -1.727753
H       3.448230   -0.596023   -0.532254
H       3.233984   -1.865335    1.530953
H       0.965093   -2.326473    2.487096
H      -1.074869   -1.135946    1.622422
H      -0.843923   -0.237728   -0.571312
