20

C       0.195041    1.490985    0.151531
C      -0.165118    0.017618   -0.074825
C       0.566304   -0.575268   -1.261368
C       1.913358   -1.233878   -1.163154
O       2.057113   -1.930997    0.079824
C       0.976417   -2.826947   -0.290100
C       0.710104   -2.057224   -1.584294
C       0.310420   -2.681893   -2.888977
H       1.267414    1.606202    0.339669
H      -0.057031    2.102205   -0.722483
H      -0.343037    1.902331    1.011210
H       0.084815   -0.554172    0.823937
H      -1.248194   -0.079850   -0.223779
H       0.469426    0.004595   -2.180096
H       2.820356   -0.929266   -1.674790
H       1.364975   -3.837006   -0.470336
H       0.184530   -2.869070    0.467301
H      -0.751605   -2.956705   -2.893066
H       0.470434   -1.990386   -3.722438
H       0.889603   -3.590074   -3.092501
