21

C      -0.119055    1.548182    0.061240
C       0.031336    0.029093    0.020654
C       0.984281   -0.468207   -1.138357
O       1.785003   -1.584735   -0.675790
C       1.298393   -1.933419    0.601915
C       2.042379   -1.754698    1.968046
C       2.210723   -0.262697    1.606661
C       0.746767   -0.636247    1.173600
C       0.618512   -1.381435    2.537542
H       0.847470    2.030487    0.242848
H      -0.514704    1.936032   -0.883679
H      -0.804087    1.854983    0.857768
H      -0.954295   -0.434524   -0.110968
H       0.410088   -0.778865   -2.019225
H       1.669024    0.332614   -1.442970
H       0.627516   -2.801123    0.546878
H       2.772047   -2.414589    2.439230
H       2.300791    0.435715    2.442640
H       2.918283   -0.035422    0.809373
H      -0.120800   -2.185668    2.593735
H       0.618361   -0.771228    3.443186
