17

C      -0.419882    1.733164    0.730211
N      -0.754215    0.331217    0.585219
C       0.216592   -0.499149    0.556933
N       1.555909   -0.258294    0.666415
N      -0.147826   -1.859941    0.447688
C       0.646762   -2.959810    0.257842
C      -0.121228   -4.266651    0.167749
O       1.865661   -2.913735    0.177581
H       0.162400    2.124446   -0.121929
H      -1.340034    2.320634    0.783585
H       0.160445    1.940707    1.643868
H       1.867185    0.680569    0.487206
H       2.173130   -1.029510    0.439041
H      -1.150598   -1.973287    0.460006
H      -0.591542   -4.498595    1.129092
H      -0.912275   -4.212029   -0.586705
H       0.575470   -5.063051   -0.090540
