22

C      -0.121035    1.608501    0.028947
C       0.082685    0.093163   -0.041798
C       0.739411   -0.508618    1.222652
C      -0.032130   -0.134964    2.414151
N      -0.669543    0.113088    3.347143
C       0.869032   -2.076785    1.193296
C       1.589517   -2.543042   -0.073877
C       1.619342   -2.570938    2.438624
O      -0.430345   -2.656783    1.131043
H       0.829982    2.132715    0.175551
H      -0.563824    1.977634   -0.900636
H      -0.786102    1.886920    0.851676
H      -0.871041   -0.417926   -0.204275
H       0.723009   -0.145900   -0.895546
H       1.745083   -0.083571    1.339022
H       2.555646   -2.042108   -0.186596
H       1.764809   -3.620279   -0.014186
H       0.985078   -2.352982   -0.962431
H       1.126091   -2.242237    3.358752
H       1.647754   -3.663729    2.434847
H       2.648797   -2.198459    2.457250
H      -0.880161   -2.477823    1.965841
