21

C      -0.042207    1.540447    0.038371
C       0.023362    0.008690    0.014148
C       0.709295   -0.502347   -1.258435
N       0.774779   -0.452397    1.175898
C       0.181712   -1.198350    2.007015
N       0.812547   -1.686995    3.143140
C       2.205092   -1.336581    3.398669
C       0.125720   -2.497760    4.022527
O       0.584000   -2.971417    5.034719
H       0.967090    1.963475    0.028524
H      -0.585984    1.916553   -0.833972
H      -0.549709    1.895871    0.940010
H      -1.009339   -0.384848    0.035595
H       1.740341   -0.138445   -1.305824
H       0.734830   -1.595898   -1.276673
H       0.176202   -0.155293   -2.149219
H      -0.863103   -1.524522    1.915283
H       2.308080   -0.251642    3.476480
H       2.498403   -1.818560    4.329766
H       2.833073   -1.678562    2.572553
H      -0.915326   -2.671411    3.692226
