19

C      -0.022008    1.485832   -0.027138
C      -0.019541   -0.031898   -0.011633
O       0.685929   -0.469745   -1.175024
C       0.796923   -1.803334   -1.339855
C       1.432266   -2.423407   -2.386345
N       1.281562   -3.776100   -2.116269
C       0.585034   -3.903082   -0.956942
C       0.229452   -5.217016   -0.345441
N       0.277033   -2.715075   -0.462688
H       0.999708    1.876169   -0.009254
H      -0.517174    1.864221   -0.926153
H      -0.554496    1.868619    0.848790
H       0.470652   -0.423977    0.887607
H      -1.039140   -0.435634   -0.023557
H       1.949951   -2.052185   -3.252340
H       1.630254   -4.528931   -2.684762
H       1.118631   -5.806334   -0.092094
H      -0.331860   -5.033416    0.571431
H      -0.391415   -5.826124   -1.012924
