18

N      -0.223162    1.341941   -0.081567
C       1.189126    1.016182    0.187103
C       0.181506   -0.066509    0.061623
C      -0.240191   -0.797620    1.280207
O      -0.252071   -0.054452    2.544946
C      -0.713903   -1.395189    2.894900
C      -1.556594   -1.594809    1.602093
C      -0.888202   -2.952865    1.299131
C       0.260168   -2.136178    1.930122
H      -0.658635    1.635088    0.791878
H       1.870906    1.214099   -0.634914
H       1.582072    1.214577    1.179537
H       0.130903   -0.648039   -0.856432
H      -0.962986   -1.602140    3.934705
H      -2.578364   -1.257035    1.430625
H      -1.247503   -3.809124    1.876097
H      -0.779098   -3.224114    0.245965
H       1.295120   -2.411615    2.131861
