18

C      -0.008256    1.552690   -0.096089
C       0.118039    0.048805   -0.066056
C       1.461230   -0.658887   -0.163089
O       2.603773    0.132980    0.081026
C       2.737949    0.155555    1.490736
O       1.432638    0.087493    2.030207
C       0.687736   -0.712971    1.121072
C       0.038389   -1.920641    1.734798
H      -0.010514    1.920855   -1.127183
H      -0.941354    1.872584    0.378956
H       0.818817    2.028690    0.431751
H      -0.682018   -0.487502   -0.574268
H       1.623812   -1.506521   -0.821728
H       3.341519   -0.704392    1.831217
H       3.206345    1.096339    1.793552
H      -0.707456   -1.623149    2.479458
H      -0.467668   -2.515994    0.969181
H       0.780487   -2.554671    2.231228
