20

C      -0.245770    1.578668   -0.055760
C       0.017777    0.087039   -0.058896
C       0.683606   -0.578141   -1.280520
O       1.855645    0.156500   -1.705359
C       2.675221   -0.439290   -0.654903
C       4.064738   -0.763547   -1.126036
C       2.397046    0.266500    0.686436
N       1.092709   -0.471377    0.862473
C       1.515899   -1.402655   -0.279718
H       0.576104    2.128357   -0.520315
H      -1.158152    1.801900   -0.618632
H      -0.383673    1.943306    0.967748
H      -0.897778   -0.462746    0.194198
H       0.090220   -0.936078   -2.125775
H       4.589889    0.155946   -1.408144
H       4.638161   -1.256459   -0.334858
H       4.035953   -1.418174   -2.001882
H       3.087196   -0.054572    1.474747
H       2.341228    1.357805    0.682212
H       1.545562   -2.480501   -0.131877
