17

O      -0.028176   -0.063155    0.395234
C      -0.063575    1.120394    0.128568
N      -1.240160    1.793088   -0.110505
C      -1.380189    3.243222    0.027734
C      -0.822809    3.789043    1.330428
C       0.473144    3.695346    1.627661
C       1.445510    3.094883    0.673812
C       2.154942    1.800298    0.931438
N       1.109811    1.877726   -0.071758
H      -2.042861    1.230394    0.126249
H      -0.884572    3.731349   -0.820108
H      -2.443814    3.472849   -0.061621
H      -1.514045    4.249261    2.030787
H       0.864914    4.092528    2.561009
H       1.984912    3.823756    0.065709
H       3.165485    1.656200    0.559472
H       1.914042    1.256106    1.840302
