18

C      -0.063327    1.492673   -0.019971
C       0.074358    0.001899    0.046186
C       0.765929   -0.817815   -0.985778
C       1.462493   -2.105773   -0.587931
C       0.588016   -2.577194    0.567173
O       0.833995   -1.722638    1.724287
C      -0.235443   -0.866592    1.290974
C      -0.797590   -1.892186    0.310437
N      -0.710772   -0.943198   -0.868921
H       0.766953    1.981564    0.502942
H      -0.062710    1.836803   -1.058547
H      -0.998379    1.825257    0.443880
H       1.091659   -0.294876   -1.880864
H       1.443621   -2.814267   -1.424636
H       2.497727   -1.965641   -0.266084
H       0.649583   -3.636222    0.823444
H      -0.774962   -0.381566    2.106094
H      -1.729735   -2.441427    0.409472
