18

O      -0.342500    0.462043    1.015455
C      -0.133609    1.243242    0.116699
C       1.176597    1.934183   -0.087750
C       1.469721    2.477343   -1.469396
C       1.804784    1.351047   -2.472334
C       2.106075    1.854938   -3.805251
C       2.347329    2.300785   -4.895071
C       1.702054    2.609853    1.150099
N       2.311747    1.378800    0.669435
H      -0.926611    1.499850   -0.618705
H       0.608431    3.051390   -1.831754
H       2.313852    3.169903   -1.418787
H       2.657731    0.784256   -2.080948
H       0.966689    0.643234   -2.531353
H       2.565962    2.679584   -5.862494
H       2.297847    3.510080    1.025579
H       1.083949    2.572373    2.042726
H       1.952621    0.599426    1.222912
