16

C      -1.092132    1.520335   -0.856976
C      -0.067347    0.488038   -0.353344
C      -0.702861   -0.522368    0.495963
C      -1.247617   -1.341452    1.185829
C       0.714617   -0.190708   -1.480332
N       0.353375    0.057802   -2.686644
O       1.131762   -0.599603   -3.626286
C       1.801083   -1.037182   -1.119855
C       2.721842   -1.727514   -0.767722
H      -0.597471    2.288140   -1.455689
H      -1.852601    1.041693   -1.476050
H      -1.581093    1.991254   -0.000983
H       0.678558    1.013101    0.260535
H      -1.719971   -2.068605    1.798716
H       0.738490   -0.312073   -4.458110
H       3.532363   -2.345979   -0.469433
