17

C       0.121396    1.429732   -0.366593
C       1.412369    2.012499    0.286567
C       2.138419    0.765914    0.709154
C       3.376210    0.342416    1.123802
N       3.268554   -1.009298    1.376939
C       1.985359   -1.449681    1.127390
C       1.267116   -0.356758    0.711387
C      -0.121471    0.036139    0.290486
H      -0.739031    2.097700   -0.268940
H       0.302053    1.287402   -1.437448
H       1.970882    2.647226   -0.409073
H       1.160260    2.640807    1.151967
H       4.315401    0.854735    1.259030
H       4.030074   -1.599746    1.661432
H       1.722424   -2.486296    1.265705
H      -0.791026    0.126569    1.156953
H      -0.599056   -0.664155   -0.402501
