23

C      -0.640669    1.057386   -0.262566
C       0.330389   -0.108629   -0.149296
C       1.777336    0.098415   -0.687223
C       2.334377   -0.526603    0.626229
C       0.910408   -0.437650    1.263699
C       0.585295   -1.825429    1.847768
C       1.661041   -2.699716    1.244192
C       2.605413   -2.013860    0.592126
C       3.815085   -2.571863   -0.091943
H      -0.211832    1.969329    0.169419
H      -0.888525    1.271398   -1.308540
H      -1.578394    0.849017    0.265522
H      -0.119848   -1.006499   -0.586788
H       2.035850   -0.401594   -1.625321
H       2.034053    1.158587   -0.780672
H       3.157903    0.026718    1.092785
H       0.763051    0.380530    1.972942
H       0.628083   -1.841837    2.946178
H      -0.427578   -2.155663    1.578474
H       1.659580   -3.780242    1.354328
H       3.848192   -3.663251   -0.032240
H       3.841117   -2.288885   -1.151910
H       4.737654   -2.178693    0.354872
