21

C      -0.290894    1.229033   -0.361322
C       1.096349    1.187004    0.223905
C       0.269678   -0.078904    0.145136
C      -0.223896   -0.750501    1.373500
C       0.484134   -1.892492    2.111372
C      -0.861290   -2.125402    2.847384
C      -1.028863   -0.850296    3.717946
C      -1.175170   -0.098891    2.395983
C      -1.583243   -1.358566    1.664275
H      -1.070074    1.719523    0.210712
H      -0.393947    1.348035   -1.434340
H       1.945199    1.294304   -0.442316
H       1.238026    1.624478    1.206232
H       0.571817   -0.775935   -0.633922
H       0.719186   -2.709584    1.422004
H       1.365494   -1.665495    2.724545
H      -1.123709   -3.107487    3.235311
H      -1.972522   -0.855903    4.271130
H      -0.206440   -0.589228    4.395130
H      -1.559990    0.901495    2.245886
H      -2.426713   -1.579715    1.026191
