22

C       0.136583    1.621581    0.082058
C      -0.122174    0.116249   -0.046442
C       0.640965   -0.512693   -1.206098
N       2.100393   -0.604637   -1.031840
C       2.190663   -1.956161   -1.255232
O       3.121606   -2.715256   -1.326823
C       0.648630   -2.079920   -1.401153
C      -0.007315   -2.928726   -0.314089
C       0.231964   -2.537448   -2.799203
H       1.195296    1.826861    0.275124
H      -0.145447    2.153840   -0.833247
H      -0.436711    2.051861    0.908382
H       0.151314   -0.384347    0.888081
H      -1.194238   -0.060107   -0.201255
H       0.369671    0.001444   -2.138775
H       2.819420    0.104418   -1.020818
H       0.313004   -2.638581    0.689877
H      -1.099695   -2.857880   -0.359851
H       0.267654   -3.978538   -0.455173
H       0.532838   -3.576940   -2.962095
H      -0.854797   -2.473769   -2.924423
H       0.700915   -1.928484   -3.578688
