25

C       0.966352   -0.037329   -1.192672
C      -0.021095   -0.292745   -0.045979
C       0.610316   -0.763296    1.259331
C       1.780243    0.046158    1.803723
C       1.418448    1.491331    2.170315
C      -0.343509   -1.353185    2.290319
C       0.609099   -2.253327    1.569991
O       0.040920   -3.179748    0.696723
C       0.988355   -3.820786   -0.132506
H       1.574889   -0.921776   -1.407766
H       0.429013    0.226117   -2.109125
H       1.651501    0.786413   -0.968193
H      -0.590695    0.626450    0.142306
H      -0.750675   -1.045621   -0.360388
H       2.171704   -0.459292    2.695563
H       2.601524    0.047513    1.075979
H       2.276115    2.011283    2.608543
H       1.099400    2.062830    1.292785
H       0.600151    1.518997    2.897682
H      -0.178353   -1.152814    3.344063
H      -1.386802   -1.442762    2.005649
H       1.465067   -2.644677    2.124350
H       0.442344   -4.537539   -0.750506
H       1.514898   -3.112256   -0.786702
H       1.738978   -4.364249    0.461716
