17

C      -0.133805    1.554404    0.022869
C       0.015242    0.050203    0.056473
C       1.339425   -0.647589   -0.240735
C       2.540176    0.102098   -0.430810
C       3.555676    0.735938   -0.559725
C       0.716327   -0.653074    1.195854
N       1.267657    0.100300    2.286926
C       0.172734   -1.926705    1.609411
N      -0.245823   -2.960172    1.916753
H       0.809180    2.070751    0.217538
H      -0.471323    1.869464   -0.969104
H      -0.873701    1.888482    0.756158
H      -0.847131   -0.487629   -0.324858
H       1.276388   -1.581528   -0.790208
H       4.455052    1.283926   -0.697134
H       2.059667   -0.395218    2.687002
H       1.618695    0.992248    1.957266
