20

C      -0.239744    1.527680   -0.138061
C      -0.018645    0.034364   -0.000511
O       0.903401   -0.513393   -1.019549
C       1.906445   -0.652800   -0.004961
C       2.958183   -1.621762    0.594586
N       3.218511   -0.430694    1.538211
C       2.956705    0.431026    0.326965
C       1.890969   -0.200792    2.250416
C       0.898745   -0.579271    1.118531
H       0.686629    2.099134   -0.055907
H      -0.687807    1.748462   -1.111885
H      -0.929319    1.873527    0.639876
H      -0.976352   -0.490149   -0.073810
H       2.607639   -2.540502    1.070907
H       3.865264   -1.797086    0.014140
H       3.816650    0.425599   -0.346259
H       2.653161    1.455794    0.548042
H       1.806521   -0.864445    3.113399
H       1.871218    0.832338    2.603382
H       0.486132   -1.571520    1.321774
