17

O       0.436832    0.254416   -1.155966
C       0.372842    1.393305   -0.738844
N       1.219647    1.939443    0.169735
C       2.396930    1.230935    0.674022
C       3.381567    2.349634    0.974017
C       3.624321    3.348892   -0.127853
C       2.614264    3.655034    0.948241
C       1.162781    3.321294    0.643442
H      -0.400279    2.115716   -1.070400
H       2.161838    0.667570    1.587601
H       2.729522    0.515890   -0.082713
H       4.158377    2.164143    1.705587
H       4.556760    3.901177   -0.102785
H       3.266636    3.115093   -1.126351
H       2.814323    4.446732    1.659851
H       0.710399    3.963141   -0.120260
H       0.559340    3.410600    1.558604
