18

O      -0.132818    1.456321   -0.163366
C      -0.008938    0.039104   -0.022865
C      -1.411395   -0.558763    0.046057
C      -2.218196   -0.242608   -1.218147
N      -1.533702   -0.587703   -2.482944
C      -0.736590    0.445747   -3.106422
C      -0.066036   -0.742997   -2.475747
C       0.729234   -0.565207   -1.226016
O       1.883203   -0.928531   -1.144784
H       0.755888    1.828528   -0.158747
H       0.573540   -0.213541    0.872545
H      -1.312861   -1.644295    0.166831
H      -1.938511   -0.179481    0.927901
H      -3.157383   -0.804990   -1.194255
H      -2.476986    0.820504   -1.226844
H      -0.780199    0.496072   -4.191584
H      -0.638320    1.397851   -2.591561
H       0.324964   -1.521962   -3.125024
