15

C       0.055008    1.354103   -0.033513
N       0.063658   -0.089183    0.038500
N       0.149319   -0.816318   -1.097215
C       0.133329   -2.082194   -0.692359
O       0.203884   -3.103568   -1.568761
C       0.037764   -2.201130    0.702602
C      -0.005613   -0.883872    1.147868
C      -0.101266   -0.367319    2.457326
C      -0.182992    0.069851    3.576872
H       0.975636    1.714647   -0.501126
H      -0.799011    1.697922   -0.623975
H      -0.018820    1.750450    0.979284
H       0.261213   -2.716346   -2.451352
H       0.004766   -3.094424    1.301396
H      -0.255230    0.448716    4.566378
