19

C      -0.249980    1.676831    0.057956
C      -0.151162    0.156900    0.016821
O       0.604277   -0.353273    1.118294
C      -1.523140   -0.525756   -0.042055
N      -2.557144    0.176503    0.206206
N      -1.554211   -1.894904   -0.370221
C      -2.849848   -2.541391   -0.560493
C      -0.420723   -2.697621   -0.476707
O      -0.457545   -3.868788   -0.777039
H       0.759594    2.090143    0.127748
H      -0.735637    2.064322   -0.840723
H      -0.840176    2.007344    0.915756
H       0.424679   -0.133620   -0.868800
H       0.149008   -0.088909    1.926259
H      -3.420375   -0.363088    0.169962
H      -3.431750   -2.016652   -1.324162
H      -2.655994   -3.562497   -0.883151
H      -3.421581   -2.562482    0.373828
H       0.509470   -2.173288   -0.235497
