10

F       0.058799    0.031657    0.002870
C      -0.006117    1.353030    0.010412
N      -1.182546    1.858176    0.028556
O      -1.253272    3.239415    0.036441
C      -0.141049    4.082635    0.025690
O      -0.336252    5.265612    0.034986
C       1.159454    3.417371    0.005500
C       1.233627    2.076721   -0.002263
H       2.028253    4.063477   -0.002538
H       2.167003    1.525853   -0.017276
