18

N       0.023148   -1.187921   -0.234231
C      -0.026355   -0.056399   -0.005011
C      -0.060510    1.379017    0.272608
C       1.312029    2.030203    0.073463
C       1.950862    2.260407   -1.320423
C       0.895051    3.050564   -2.121153
C       0.544622    4.095932   -1.013717
C       1.511431    3.567892    0.067569
O       2.727251    3.338870   -0.708192
H      -0.821769    1.834449   -0.367926
H      -0.392705    1.524530    1.307474
H       2.052995    1.574516    0.732131
H       2.551320    1.506934   -1.828076
H       1.342003    3.507950   -3.005191
H       0.046524    2.440697   -2.443207
H       0.805849    5.116205   -1.299335
H      -0.505057    4.084933   -0.706636
H       1.662867    4.150171    0.976431
