23

C      -1.165454    0.791902   -0.201086
C      -0.077975   -0.257319   -0.010040
C       1.209490   -0.224954   -0.899367
C       1.579504    1.103913   -1.549223
C       2.040869   -0.623424    0.377691
C       3.318973    0.011868    0.619479
C       4.377092    0.549616    0.819756
C       0.807074   -0.245085    1.280716
C       0.916340    1.070739    2.043462
H      -0.780867    1.812411   -0.120681
H      -1.634249    0.691774   -1.186315
H      -1.954726    0.675751    0.549932
H      -0.537196   -1.247940   -0.103954
H       1.226655   -1.002769   -1.669225
H       1.607790    1.931184   -0.835121
H       2.571607    1.040005   -2.006571
H       0.861343    1.362363   -2.334540
H       2.177891   -1.709941    0.392951
H       5.313765    1.016909    0.996969
H       0.550848   -1.036576    1.991956
H       1.194938    1.910536    1.401401
H      -0.035687    1.317480    2.525163
H       1.680029    0.995409    2.823606
