16

C      -0.188127    1.459222   -0.504572
O      -0.318564    0.070565   -0.709589
C       0.880886   -0.627336   -0.486992
C       0.620189   -2.070290   -0.731518
C      -0.472990   -2.748902   -1.096257
N      -0.090817   -4.092115   -1.164225
C       1.237354   -4.230310   -0.838090
O       1.927260   -5.210233   -0.780086
O       1.678046   -2.941052   -0.566504
H       0.111114    1.690938    0.529185
H       0.553286    1.902800   -1.186813
H      -1.164165    1.908007   -0.700692
H       1.683956   -0.268902   -1.155916
H       1.246615   -0.478292    0.544940
H      -1.467631   -2.403025   -1.310622
H      -0.666810   -4.878654   -1.404305
