21

C       0.368541    1.121752    0.273884
O      -0.235744    0.015562   -0.372505
C       0.580698   -0.660584   -1.302498
C       0.766298    0.053132   -2.620492
C       1.683534   -1.535030   -0.719403
C       0.381456   -2.151888   -1.208036
O      -0.535383   -2.600123   -0.254041
C       0.338165   -3.073533   -2.420324
O       1.472169   -2.994850   -3.268394
H       1.296064    0.833170    0.786333
H       0.595090    1.931178   -0.432004
H      -0.349465    1.489607    1.010436
H       1.351840    0.971328   -2.498442
H       1.288193   -0.593671   -3.327644
H      -0.206344    0.323493   -3.044770
H       2.589080   -1.650789   -1.306059
H       1.824787   -1.520005    0.356069
H      -0.900973   -1.802099    0.154123
H       0.186801   -4.094025   -2.041246
H      -0.527200   -2.827575   -3.044365
H       2.217110   -3.376259   -2.793555
