17

C      -0.082828    1.527645    0.058164
C      -0.040041    0.017276    0.052815
C      -1.126230   -0.682177   -0.745738
C      -1.236441   -2.158274   -0.501068
C      -0.646226   -2.806148    0.509376
C       0.177718   -2.110915    1.515420
O       0.486218   -2.611903    2.579248
C       0.606714   -0.710711    1.170004
O       1.256102   -0.555778   -0.104885
H       0.769954    1.932045    0.608008
H      -0.044787    1.915374   -0.965889
H      -1.005301    1.890864    0.522646
H      -2.097523   -0.212209   -0.533261
H      -0.946349   -0.500050   -1.814570
H      -1.869551   -2.708711   -1.193358
H      -0.794945   -3.868625    0.671516
H       1.063288   -0.163379    1.992698
