10

F       0.028914    0.069011    0.003019
C      -0.030639    1.388589    0.010950
N      -1.182373    1.944644    0.029391
C      -1.228202    3.337686    0.037779
O      -2.230297    4.005245    0.054802
N       0.042310    3.964356    0.024374
N       1.229787    3.377465    0.005363
C       1.226149    2.076707   -0.001811
H       0.050170    4.975873    0.029863
H       2.174689    1.557272   -0.017221
