15

O       0.105255    1.389813    0.141418
C       0.071789   -0.023179    0.182503
C      -1.349147   -0.548141   -0.075034
N      -1.412696   -1.995527   -0.024493
C      -1.955615   -2.806027    0.907742
N      -1.759276   -4.073668    0.594256
C      -1.066608   -3.980465   -0.572706
N      -0.828939   -2.747319   -0.991751
H       0.068646    1.665441   -0.779863
H       0.763408   -0.483588   -0.534449
H       0.391498   -0.315834    1.187914
H      -2.034417   -0.149658    0.677287
H      -1.696647   -0.221929   -1.060727
H      -2.478384   -2.431000    1.775096
H      -0.731776   -4.841820   -1.131268
