24

C      -0.216795    1.796070   -0.270698
C       0.008009    0.295152   -0.018883
C      -1.311583   -0.481421    0.148421
C      -2.145641   -0.070248    1.356407
O      -3.240644   -0.971274    1.444998
C       0.813278   -0.288070   -1.170863
C       2.298277   -0.163510   -1.228525
N       1.671317   -1.471702   -1.079244
C       1.854974   -2.164241    0.186747
H       0.737264    2.315409   -0.402244
H      -0.809720    1.953694   -1.179483
H      -0.745930    2.275057    0.558128
H       0.588632    0.193007    0.906536
H      -1.922804   -0.371239   -0.756710
H      -1.097512   -1.551388    0.246514
H      -1.523840   -0.109722    2.267162
H      -2.499624    0.966158    1.249147
H      -3.801545   -0.691371    2.174086
H       0.273960   -0.248761   -2.119119
H       2.816651    0.020700   -2.166454
H       2.785940    0.265769   -0.352040
H       1.918653   -1.509366    1.070442
H       1.033582   -2.871312    0.341360
H       2.785862   -2.738334    0.133776
