21

C      -0.179651    1.484861   -0.117654
C       0.012749   -0.021580   -0.038320
C       1.273387   -0.554183   -0.840090
C       1.973943   -0.590743    0.498013
C       3.018267   -0.170266    1.203455
C       2.590584    0.108664    2.645218
C       1.030114    0.202453    2.560096
C       0.684811   -0.578202    1.274374
O       0.108510   -1.862072    1.508632
H       0.751703    2.017501    0.105867
H      -0.497765    1.781409   -1.122637
H      -0.942503    1.828210    0.589089
H      -0.915382   -0.550307   -0.268675
H       1.084518   -1.542537   -1.267122
H       1.694408    0.097336   -1.610423
H       4.017814    0.045312    0.840644
H       2.923939   -0.674582    3.340565
H       3.031470    1.041717    3.012720
H       0.518569   -0.210945    3.433483
H       0.736886    1.253028    2.472938
H       0.753258   -2.387599    1.995556
