20

C      -0.117823    1.405538   -0.108397
C       1.287033    0.942294    0.057744
N       0.182009   -0.011845    0.072457
C      -0.153083   -0.577797    1.359386
C      -1.498600   -1.383422    1.376387
C      -0.708838   -2.538288    0.680013
C       0.401946   -2.009358    1.615665
O      -0.091200   -2.295098    2.933754
C      -1.474876   -1.873847    2.826518
H      -0.565684    1.941380    0.727078
H      -0.495805    1.688126   -1.086633
H       1.954398    0.879885   -0.796873
H       1.775886    1.168715    1.004100
H      -0.000585    0.126654    2.194557
H      -2.429638   -0.974664    0.985329
H      -1.046193   -3.564463    0.842725
H      -0.515966   -2.331384   -0.370083
H       1.455323   -2.276064    1.545943
H      -1.683610   -1.088296    3.562626
H      -2.143492   -2.722878    3.011954
