20

O       0.148641   -0.079901    0.044627
C       0.142292    1.132954    0.113291
N       1.226609    1.932302   -0.054009
C       2.578118    1.399582   -0.227478
C       3.460234    2.421598    0.513097
C       2.720040    3.753372    0.337117
C       2.776568    4.421987   -1.070455
C       1.246889    4.200057   -1.239986
C       1.220841    3.379569    0.086652
H      -0.772537    1.720562    0.331100
H       2.618288    0.387323    0.177202
H       2.839935    1.341931   -1.292610
H       3.513178    2.160045    1.575098
H       4.481851    2.450398    0.123761
H       2.895707    4.447318    1.160402
H       3.105360    5.463112   -1.077317
H       3.389036    3.870190   -1.789176
H       0.663638    5.121921   -1.172679
H       0.927172    3.650577   -2.128283
H       0.471238    3.686089    0.819852
