15

O      -0.217220    0.185720    0.549507
C       0.039726    1.094999   -0.192022
C       1.344602    1.868487   -0.139135
O       1.301434    2.858125   -1.145426
C       2.400362    3.644379   -1.236965
C       3.552536    3.632786   -0.504257
O       4.385525    4.617620   -0.958891
C       3.749533    5.243152   -1.977124
C       2.527545    4.696714   -2.200859
H      -0.658779    1.447422   -0.982014
H       1.463194    2.317255    0.859119
H       2.186253    1.176018   -0.294546
H       3.919531    3.039745    0.313783
H       4.289184    6.052110   -2.441164
H       1.799433    4.983900   -2.941654
