15

O       0.243831    1.097785    0.765451
C       0.008263    0.111090   -0.225799
C      -1.362911   -0.492580   -0.129647
C      -2.169515   -0.540982    0.974306
N      -3.324217   -1.191040    0.601336
C      -4.421791   -1.444153    1.438341
O      -5.424292   -2.005869    1.109166
N      -3.299502   -1.568497   -0.705744
C      -2.128259   -1.149117   -1.141476
H      -0.378447    1.816969    0.612411
H       0.172207    0.503704   -1.241281
H       0.776424   -0.653548   -0.060350
H      -2.023207   -0.174607    1.977553
H      -4.226125   -1.048616    2.452305
H      -1.851492   -1.322409   -2.172737
