10

N      -0.019365    1.344999    0.159965
C       0.002903   -0.030773    0.052955
N      -1.098760   -0.770732    0.021643
N      -0.574935   -2.032031   -0.015969
C       0.765560   -1.982287   -0.013218
N       1.178331   -0.729345    0.029261
H       0.809855    1.782185   -0.213987
H      -0.873426    1.766001   -0.175129
H      -1.190283   -2.826878   -0.042344
H       1.392988   -2.860578   -0.042255
