16

O      -0.120377    1.409173   -0.064366
C       0.015188   -0.000859   -0.063991
C      -1.387462   -0.583157    0.141970
C      -1.398374   -2.070520    0.138839
N      -1.612376   -2.878064    1.137373
C      -1.489437   -4.140867    0.594765
O      -1.651939   -5.247021    1.343376
C      -1.199162   -4.050297   -0.726310
O      -1.139425   -2.704372   -1.023672
H       0.750877    1.796374   -0.189110
H       0.429096   -0.370272   -1.014089
H       0.676954   -0.346048    0.745263
H      -1.786457   -0.241329    1.099053
H      -2.037888   -0.200595   -0.652274
H      -1.856803   -4.946536    2.237063
H      -1.024904   -4.744993   -1.526125
