12

O       0.341676    1.723579   -1.837306
C      -0.028399    1.654634   -0.694150
C       0.827983    1.316659    0.413858
C       1.540597    1.054397    1.346833
C      -1.531660    1.919851   -0.335529
C      -2.160952    0.681147    0.113176
C      -2.646717   -0.360955    0.456138
C      -1.645587    2.993351    0.659988
N      -1.715138    3.852941    1.427803
H       2.174797    0.822332    2.168676
H      -1.987308    2.261061   -1.272384
H      -3.087978   -1.277222    0.764436
