17

O      -0.099490    0.053386    0.007573
C      -0.091823    1.256894    0.013052
C      -1.321782    2.176065    0.034218
C      -0.712115    3.551626    0.031794
C       0.622904    3.520114    0.013261
C       1.171213    2.128164   -0.000333
C       2.284859    1.731349    1.013347
O       3.239996    1.488155   -0.031215
C       2.256858    1.740345   -1.047286
H      -1.960628    1.971976   -0.834591
H      -1.936142    1.964285    0.918714
H      -1.309827    4.455587    0.043962
H       1.267401    4.392360    0.008173
H       2.602318    2.531404    1.692759
H       2.057781    0.823208    1.584805
H       2.014214    0.837189   -1.620242
H       2.555857    2.546317   -1.728079
