14

C      -0.156874    1.675431    0.045096
C      -0.016523    0.141698    0.047348
N       0.744406   -0.334366    1.204895
C       2.083464   -0.555043    1.144755
O       2.775179   -0.354962    0.168127
C      -1.317692   -0.523877    0.001426
C      -2.400070   -1.045541   -0.011027
H       0.837144    2.128985    0.042423
H      -0.699799    2.004516   -0.844931
H      -0.703776    2.015121    0.929021
H       0.576334   -0.149629   -0.826851
H       0.243693   -0.548764    2.052575
H       2.481982   -0.942824    2.102706
H      -3.351210   -1.517211   -0.042417
