16

C       0.081651    1.519523    0.008315
C      -0.023792   -0.016798    0.003406
C      -1.399716   -0.494384    0.013203
C      -2.544605   -0.876417    0.021252
C      -3.878679   -1.320898    0.030600
C      -5.077784   -0.662012    0.042859
C      -6.031654   -1.707437    0.046906
N      -5.469369   -2.892733    0.038209
O      -4.104332   -2.658602    0.027973
H       1.131829    1.824138    0.000602
H      -0.408142    1.946099   -0.870888
H      -0.393213    1.939437    0.898842
H       0.488805   -0.421118   -0.879029
H       0.503606   -0.427730    0.873985
H      -5.239407    0.402021    0.047981
H      -7.110364   -1.639078    0.055981
