25

C       0.651605   -0.464140   -0.918447
C      -0.099396   -1.762092   -0.583994
C      -1.540635   -1.522698   -0.217112
C      -2.601204   -1.056334   -1.227921
C      -3.659907   -1.957590   -0.516084
C      -2.588792   -2.408786    0.487303
C      -2.516660   -3.803603    1.044164
C      -2.036890   -1.175539    1.173478
C      -1.125290   -1.314232    2.375611
H       1.686091   -0.669247   -1.211649
H       0.170056    0.068186   -1.745619
H       0.671936    0.212566   -0.057969
H      -0.056490   -2.435542   -1.451176
H       0.420990   -2.284191    0.226667
H      -2.805228    0.019974   -1.251603
H      -2.392423   -1.390198   -2.248489
H      -4.534940   -1.453121   -0.090374
H      -4.009905   -2.770361   -1.158797
H      -2.555188   -4.550690    0.242620
H      -1.601123   -3.980683    1.615171
H      -3.363019   -4.001593    1.714653
H      -2.708676   -0.318210    1.255872
H      -0.439062   -2.160684    2.291789
H      -0.516489   -0.413303    2.510743
H      -1.708454   -1.457811    3.292249
