17

C      -0.016631    1.542996    0.071342
C       0.017729    0.040414    0.003880
C       0.610691   -0.793366   -1.185044
C       0.644392   -1.855096   -0.040291
N       0.933613   -0.733859    0.951263
C      -0.847892   -2.036835    0.230585
C      -1.282745   -0.768781    0.262715
C      -2.567365   -0.231839    0.475954
N      -3.608761    0.251230    0.639734
H       0.964933    1.967222   -0.160717
H      -0.739671    1.947399   -0.643703
H      -0.307407    1.874888    1.072602
H      -0.011067   -0.979365   -2.065727
H       1.609434   -0.451522   -1.476281
H       1.291491   -2.729921   -0.040190
H       1.888361   -0.410105    0.766052
H      -1.390347   -2.960334    0.364978
