20

C       0.248177    1.265685    0.192684
O      -0.142973   -0.034540   -0.211174
C       0.564547   -0.525504   -1.297735
C       0.319888    0.035183   -2.699998
C       0.539930   -1.232001   -3.578382
N       1.292032   -2.199074   -2.747668
C       2.591770   -1.566302   -2.295412
C       1.934199   -1.150493   -0.990416
C       0.745902   -2.009032   -1.373207
H       1.315169    1.305263    0.452775
H       0.052465    2.011618   -0.590276
H      -0.345591    1.516166    1.074707
H      -0.700609    0.423647   -2.772800
H       1.005097    0.847021   -2.964618
H      -0.421183   -1.687021   -3.838651
H       1.081899   -1.033858   -4.507234
H       3.360780   -2.334094   -2.168065
H       2.976830   -0.783805   -2.960957
H       2.393111   -1.035246   -0.015526
H       0.175418   -2.759659   -0.841602
