24

C       2.750005    0.596095    0.865232
C       1.567759   -0.306032    0.481621
C       1.550117   -0.727539   -0.983297
C       1.369778    0.429889   -1.953490
C       2.408868   -1.886649   -1.466821
C       3.361071   -2.666983   -0.583186
C       0.899922   -2.041813   -1.389565
C       0.213431   -2.990395   -0.427767
H       3.705574    0.101576    0.663650
H       2.741390    1.538770    0.309836
H       2.718967    0.843750    1.931139
H       1.573070   -1.183804    1.133431
H       0.628264    0.219440    0.702989
H       2.204234    1.138400   -1.906946
H       1.304424    0.071135   -2.985401
H       0.449514    0.986771   -1.736815
H       2.795798   -1.760245   -2.476436
H       3.001013   -2.774235    0.442382
H       3.518441   -3.676697   -0.979849
H       4.340852   -2.178632   -0.535169
H       0.395203   -2.001241   -2.353247
H       0.730123   -3.080843    0.530094
H      -0.811230   -2.663410   -0.217037
H       0.154156   -3.996538   -0.858473
