15

C      -0.005545    1.553990    0.077268
C       0.084622    0.031311   -0.007389
C       0.708957   -0.501075   -1.264655
N       1.115091    0.333553   -2.158704
O       1.685968   -0.169886   -3.307335
N       1.836817   -1.572170   -3.528698
N       1.448749   -2.367078   -2.674717
C       0.844674   -1.941554   -1.452716
N       0.452686   -2.787809   -0.587843
H       0.983557    2.016097    0.024988
H      -0.602485    1.964721   -0.741007
H      -0.471495    1.843524    1.022620
H       0.653313   -0.381850    0.835527
H      -0.906015   -0.432467    0.082682
H       0.644689   -3.735738   -0.924077
