17

O       0.215629    0.156610   -1.033477
C       0.351066    0.867833   -0.066898
C       1.409452    1.946483    0.014171
C       0.983931    3.162600   -0.841478
C       2.145810    4.137059   -1.171915
C       2.166341    3.460199   -2.576059
N       0.834135    2.890386   -2.288343
C       2.230560    4.335533   -3.747795
N       2.300798    5.035104   -4.664904
H      -0.339319    0.783774    0.800488
H       1.562905    2.262200    1.051683
H       2.348009    1.536468   -0.374918
H       0.091836    3.622091   -0.402023
H       1.833567    5.180078   -1.215268
H       3.056815    4.045455   -0.580267
H       2.974315    2.721108   -2.662900
H       0.697229    1.916470   -2.541966
