14

C      -0.009956    1.423095    0.228091
C      -0.042294   -0.026380   -0.162223
N      -1.182436   -0.604207   -0.351514
C      -1.318707   -1.960488   -0.582422
O      -1.991183   -2.473861   -1.442485
C      -0.590450   -2.765718    0.467880
N       0.683003   -2.720774    0.587294
C       1.453326   -1.821665   -0.118561
N       1.208291   -0.582812   -0.381344
H       0.478256    2.003794   -0.560900
H      -1.019681    1.797261    0.392795
H       0.592123    1.552985    1.133460
H      -1.161042   -3.431094    1.118169
H       2.441430   -2.201091   -0.376366
