19

C       0.008004    1.475795   -0.032217
N       1.163136    0.568312   -0.137446
C      -0.189982    0.006534    0.027069
C      -0.438657   -0.708364    1.323252
N      -1.881107   -0.890413    1.684758
C      -1.676559   -2.335357    1.956885
C      -1.998575   -3.189323    0.721342
O      -0.683675   -2.925381    0.160718
C      -0.253163   -2.247313    1.358337
H      -0.022607    2.067232    0.879563
H      -0.332417    2.001890   -0.920172
H       1.455406    0.487148   -1.107293
H      -0.653399   -0.467662   -0.833690
H       0.157415   -0.237728    2.116815
H      -2.170753   -0.354111    2.493455
H      -1.938144   -2.703239    2.949581
H      -2.130952   -4.261516    0.916946
H      -2.808591   -2.814089    0.087990
H       0.672808   -2.657680    1.765442
