20

C      -0.502856    1.258073    0.303196
C       0.005631   -0.160056    0.191241
N       1.392655   -0.330385   -0.264795
C       1.039371   -0.742148    1.105542
C       1.691680    0.020131    2.218239
C       0.958665    0.235931    3.532607
O      -0.281974   -0.392863    3.728079
C       2.116304   -0.722221    3.479254
O       1.818884   -2.077398    3.598459
H       0.262128    1.917382    0.719247
H      -0.783049    1.646600   -0.681579
H      -1.392127    1.312250    0.943417
H      -0.726154   -0.869073   -0.196789
H       1.476934   -1.144423   -0.867143
H       0.961850   -1.809967    1.296748
H       2.330383    0.834448    1.892982
H       1.059821    1.189372    4.046172
H      -0.827970   -0.236725    2.950298
H       3.057597   -0.451531    3.948181
H       0.887690   -2.118613    3.862143
