21

C      -0.378338    1.445017   -0.029062
C       0.003128   -0.012313   -0.022053
C       0.165669   -0.744107    1.283406
C       1.390771   -0.272655    2.082266
N       1.433130   -0.933615    3.381223
C       2.132077   -2.214691    3.428693
C       2.736240   -0.995199    4.032313
N       0.207304   -0.696651   -1.083199
O       0.043349    0.084537   -2.241540
H       0.430313    2.056016   -0.444648
H      -1.246864    1.603194   -0.675561
H      -0.608335    1.802636    0.976491
H      -0.725121   -0.594315    1.906134
H       0.254179   -1.814404    1.078259
H       2.304895   -0.456515    1.488817
H       1.334932    0.808011    2.260748
H       1.681849   -2.978804    4.055670
H       2.580280   -2.585504    2.507735
H       3.587757   -0.555965    3.514409
H       2.734394   -0.850066    5.108886
H       0.198567   -0.559242   -2.940340
