19

C      -0.132680    1.546693   -0.251246
C       0.187848    0.071828   -0.166744
O       1.559263   -0.218170   -0.633902
C       1.902190   -0.772422    0.572139
O       2.948823   -1.244718    0.888392
C       0.533524   -0.541447    1.203320
C       0.480670    0.182314    2.575545
C       0.235448   -1.197672    3.243737
C      -0.172307   -1.759063    1.855360
H       0.575114    2.136850    0.337938
H      -0.087757    1.888772   -1.289138
H      -1.143039    1.736696    0.125909
H      -0.515498   -0.530144   -0.751079
H       1.366402    0.745526    2.876036
H      -0.395710    0.834030    2.641426
H       1.170056   -1.641487    3.592983
H      -0.504012   -1.245386    4.045094
H      -1.253689   -1.714571    1.693506
H       0.189316   -2.750769    1.575819
