13

N      -0.155600    1.250560   -0.100342
C      -0.085006   -0.100853   -0.046113
N      -1.049499   -0.961123   -0.239337
C      -0.402608   -2.150908    0.001810
C      -1.143158   -3.451951   -0.093471
O      -1.955457   -3.494836   -1.248144
N       0.859601   -2.059491    0.311694
O       1.084410   -0.649705    0.289978
H       0.710994    1.752421   -0.206991
H      -0.954065    1.628357   -0.583449
H      -0.431048   -4.278478   -0.150028
H      -1.738120   -3.582725    0.825331
H      -2.413738   -2.646900   -1.294076
