17

C      -0.074626    1.331092   -0.505925
C      -0.077086   -0.177667   -0.244204
C      -1.432603   -0.665055    0.253143
O      -2.490733   -0.538647   -0.738565
C      -2.713552   -1.941763   -0.854247
C      -2.332705   -2.544538   -2.192772
O      -1.748181   -1.951535   -3.058562
C      -1.658096   -2.180405    0.268159
O      -1.232040   -3.119200    0.860306
H       0.897016    1.655742   -0.888374
H      -0.836499    1.589701   -1.246026
H      -0.282918    1.894705    0.410073
H       0.173410   -0.716772   -1.163976
H       0.672220   -0.446624    0.510173
H      -1.713894   -0.169495    1.192795
H      -3.731547   -2.252841   -0.579295
H      -2.619955   -3.614853   -2.290545
