16

N       0.051115    1.231515    0.159930
C       0.047933   -0.099938   -0.053965
O       1.083575   -0.754481   -0.252572
C      -1.282911   -0.755084   -0.041276
O      -2.390867    0.073659    0.191040
C      -1.425786   -2.024098   -0.915716
O      -0.443173   -2.405328   -1.805639
C      -1.305255   -2.177287    0.572574
O      -0.201440   -2.721127    1.192799
H       0.934214    1.704190    0.259510
H      -0.802743    1.678923    0.450768
H      -2.756102    0.331998   -0.663693
H      -2.421296   -2.156337   -1.333186
H       0.397912   -2.041103   -1.478021
H      -2.221348   -2.388819    1.115658
H       0.588439   -2.331566    0.782507
