20

C      -0.084009    1.561781   -0.121501
C       0.027283    0.033803   -0.023248
C       0.736513   -0.537542   -1.258469
C       0.747515   -0.420514    1.258285
C      -0.015445   -0.107794    2.561773
O      -1.336563   -0.647736    2.553400
C       0.741630   -0.563088    3.732101
C       1.360445   -0.985217    4.672697
H       0.908219    2.029606   -0.124434
H      -0.589839    1.854175   -1.047437
H      -0.654817    1.989192    0.708257
H      -0.988256   -0.378622    0.013259
H       1.763832   -0.160573   -1.333401
H       0.786635   -1.631091   -1.222760
H       0.213494   -0.255810   -2.178282
H       0.915382   -1.505065    1.221698
H       1.741317    0.042168    1.318921
H      -0.164632    0.974937    2.641917
H      -1.257255   -1.602853    2.656741
H       1.902029   -1.338506    5.515255
