17

O      -0.124027    1.419297    0.178586
C       0.054365    0.062441    0.027517
C      -0.968463   -1.025094    0.102132
C      -0.202075   -0.773246   -1.203152
C       0.911166   -1.827093   -1.295523
C       1.929763   -1.437136   -0.446300
C       1.152024   -0.810677    0.673019
C      -0.004435   -2.031254    0.759220
C       0.390771   -3.024798   -0.440974
H       0.439345    1.872336   -0.458759
H      -2.047923   -0.987737    0.172451
H      -0.726231   -0.376848   -2.063222
H       2.745304   -2.119706   -0.208711
H       1.628015   -0.485412    1.596446
H      -0.294447   -2.448472    1.727291
H      -0.494105   -3.538996   -0.830616
H       1.154731   -3.756197   -0.171804
