19

C      -0.123287    1.559981    0.058310
C       0.023478    0.036419    0.002035
C       0.778481   -0.477648   -1.237725
C       2.263189   -0.090923   -1.231019
C       0.607471   -2.014521   -1.344183
O      -0.745475   -2.436486   -1.355585
C       1.313501   -2.554908   -2.525879
N       1.831155   -2.962986   -3.475323
H       0.843552    2.067759    0.125710
H      -0.637747    1.940998   -0.831151
H      -0.710505    1.857665    0.932185
H       0.543010   -0.318632    0.902998
H      -0.968354   -0.424950    0.018845
H       0.309523   -0.045897   -2.135068
H       2.381165    0.994631   -1.195791
H       2.770811   -0.509008   -0.353569
H       2.779708   -0.451633   -2.124466
H       1.044855   -2.479883   -0.452492
H      -1.156397   -2.105448   -2.162923
