15

O       0.347127    1.314379    0.389617
C       0.088208   -0.027303    0.084911
C      -1.434030   -0.492799    0.036418
N      -1.179507   -0.882474   -1.368770
C      -1.445725   -1.518694   -2.524200
N      -0.353572   -1.519288   -3.289832
C       0.638980   -0.905946   -2.580195
O       1.882426   -0.760099   -3.081136
C       0.140201   -0.486941   -1.365182
H       0.070228    1.846775   -0.364730
H       0.682909   -0.616835    0.787527
H      -1.702456   -1.332113    0.682231
H      -2.154727    0.321060    0.145257
H      -2.400602   -1.940036   -2.794731
H       1.866211   -1.159267   -3.959941
