23

C      -0.365351    1.331814    0.256664
O       0.141105    0.050032   -0.024626
C       0.614819   -0.616354    1.124908
C       1.115296   -1.996324    0.708067
C       1.687197   -2.753075    1.881642
O       0.766952   -3.234518    2.874484
C       1.542634   -4.199580    2.140102
C       0.752859   -5.110951    1.225697
C       2.605368   -4.898410    2.963691
H       0.404092    1.989997    0.691676
H      -0.706168    1.764706   -0.687166
H      -1.214905    1.292307    0.957031
H       1.428155   -0.037356    1.597710
H      -0.186200   -0.720417    1.874835
H       0.288433   -2.541814    0.247464
H       1.893020   -1.874134   -0.055925
H       2.571468   -2.278073    2.317022
H      -0.054846   -4.580830    0.719926
H       1.404944   -5.561596    0.469536
H       0.306744   -5.925358    1.807095
H       2.153062   -5.675139    3.590117
H       3.346403   -5.380345    2.316624
H       3.120412   -4.190389    3.617461
