14

O       0.323962    1.005143   -0.727187
C      -0.034566    0.068936    0.267578
C      -1.405039   -0.508258    0.060116
C      -2.188736   -0.722556   -1.047288
C      -1.929795   -0.448438   -2.463034
O      -2.722821   -0.715326   -3.339721
C      -3.364157   -1.321088   -0.496278
N      -3.300057   -1.453812    0.797938
O      -2.043186   -0.926455    1.155559
H      -0.243384    1.778183   -0.634015
H       0.709936   -0.733462    0.209586
H       0.019742    0.483189    1.283855
H      -0.953472    0.023574   -2.680492
H      -4.243633   -1.650699   -1.030168
