16

C      -0.326404    1.731113   -0.304606
C      -0.058840    0.253091   -0.103383
C       0.827600   -0.457568   -1.154266
C       1.807061   -0.618496    0.002678
O       2.879027   -1.086747    0.201404
O       0.994866    0.024397    0.914216
C      -1.348035   -0.507821    0.224092
N      -1.320004   -1.218087    1.376988
O      -2.294074   -0.456497   -0.538325
H       0.582992    2.248228   -0.622013
H      -1.101296    1.851294   -1.064698
H      -0.679536    2.186194    0.625314
H       0.442199   -1.393634   -1.560224
H       1.190959    0.172900   -1.967544
H      -0.522104   -1.176905    1.988034
H      -2.147993   -1.718130    1.655886
