19

O      -0.098273    1.343709   -0.100689
C      -0.003655   -0.065999   -0.037365
C       0.290003   -0.576117    1.412857
C      -1.247686   -0.562368    1.655824
C      -1.441604   -0.646824    0.116696
O      -1.582347   -1.946544   -0.423595
C      -0.940891   -3.009528    0.263348
C       0.555090   -2.815169    0.518016
O       0.891749   -1.853825    1.509275
H       0.781010    1.709855    0.040860
H       0.602177   -0.473585   -0.855534
H       0.896909    0.084003    2.038794
H      -1.670595   -1.339562    2.293301
H      -1.571732    0.416381    2.014225
H      -2.231343   -0.040943   -0.331442
H      -1.446444   -3.230258    1.214245
H      -1.065132   -3.882338   -0.386337
H       0.966086   -3.760337    0.888282
H       1.053411   -2.587891   -0.435820
