21

C       0.044019    1.396241    0.086720
O      -0.172968    0.016397   -0.085884
C       0.572009   -0.557853   -1.155144
C       2.042485   -0.793119   -0.826713
C       2.380763   -2.073933   -0.971093
C       1.220123   -2.926091   -1.390263
C       1.431100   -4.059753   -2.364770
C       0.118514   -2.980797   -0.347613
C       0.055016   -1.959208   -1.459604
H       1.074841    1.629147    0.394164
H      -0.173211    1.961988   -0.833851
H      -0.635111    1.733704    0.873991
H       0.467192    0.096232   -2.038612
H       2.698241   -0.002745   -0.480851
H       3.365511   -2.491790   -0.785118
H       2.091006   -4.827291   -1.943051
H       0.482461   -4.544011   -2.616256
H       1.885983   -3.706439   -3.297194
H      -0.585710   -3.805078   -0.410116
H       0.332765   -2.637249    0.657618
H      -0.716352   -2.071936   -2.212039
