23

O      -0.113962    1.448406    0.256317
C       0.005002    0.045497    0.071219
C      -1.394701   -0.553829    0.095850
C      -1.400803   -2.071257   -0.109696
C      -2.808072   -2.675836   -0.074982
C      -2.820036   -4.194823   -0.292535
C      -4.212143   -4.774484   -0.240492
C      -4.499623   -6.096104    0.328973
O      -4.801336   -4.905196    1.058206
H       0.769278    1.828241    0.252775
H       0.493121   -0.189425   -0.889456
H       0.618660   -0.410570    0.865832
H      -1.864106   -0.300641    1.054346
H      -1.994042   -0.065048   -0.682265
H      -0.924903   -2.314078   -1.070390
H      -0.783231   -2.549790    0.663289
H      -3.282151   -2.454086    0.889013
H      -3.430220   -2.193719   -0.841590
H      -2.372278   -4.435713   -1.266691
H      -2.205040   -4.685710    0.471589
H      -4.904381   -4.391781   -0.994218
H      -5.361458   -6.664642   -0.018518
H      -3.682191   -6.694816    0.729776
