18

N       0.047543    1.340532   -0.087390
C      -0.027045   -0.016158   -0.033518
C      -1.137791   -0.796361   -0.019522
C      -0.767837   -2.205326   -0.012741
O      -1.492766   -3.183421    0.002534
C       0.746955   -2.264387   -0.022920
C       1.412618   -3.392119    0.732109
C       1.402394   -3.405698   -0.766284
C       1.251314   -0.830161   -0.040162
H       0.916681    1.789955    0.147972
H      -0.782363    1.883419    0.087194
H      -2.163629   -0.452072   -0.012958
H       2.345849   -3.176290    1.242131
H       0.745925   -4.077595    1.244356
H       0.728722   -4.100101   -1.256892
H       2.328306   -3.199133   -1.293075
H       1.848005   -0.593503   -0.930210
H       1.868203   -0.581616    0.833884
