18

C      -0.441149    1.565749   -0.007425
C      -0.078087    0.107536    0.060360
C      -1.176572   -0.976005    0.206672
N      -0.301698   -1.740802    1.147238
C       0.692974   -0.646891    1.176379
C       1.789230   -0.862434    0.100261
O       0.929822   -0.263735   -0.915420
C       3.028909   -0.126506    0.286290
C       4.047747    0.485015    0.470736
H       0.453269    2.188594    0.079892
H      -0.917798    1.789394   -0.968745
H      -1.140271    1.834891    0.790628
H      -2.098147   -0.591741    0.661712
H      -1.424403   -1.518583   -0.710685
H      -0.731003   -1.917447    2.046753
H       0.989383   -0.245120    2.145512
H       1.981942   -1.918938   -0.114852
H       4.953323    1.018959    0.621646
