19

C      -0.031943    1.639735    0.425969
C       0.062828    0.144372    0.185747
C       0.799348   -0.491126   -1.022638
C       2.089685   -0.089495   -0.279555
N       1.218163   -0.643154    0.871048
C       0.859831   -1.783196   -0.141344
C      -0.358908   -2.660754    0.156424
C       1.983864   -2.693581   -0.395685
N       2.819344   -3.463713   -0.609737
H       0.836777    2.214451    0.101649
H      -0.905647    2.032739   -0.104615
H      -0.182504    1.827699    1.494140
H      -0.904827   -0.290286    0.433579
H       0.564456   -0.431247   -2.090911
H       2.995942   -0.667449   -0.461741
H       2.325709    0.966472   -0.177144
H      -1.296673   -2.108287    0.196412
H      -0.452703   -3.426152   -0.618677
H      -0.215226   -3.169164    1.114177
