21

C       0.000612    1.458224    0.004006
C      -0.028672   -0.040818   -0.024268
C      -1.247129   -0.941820   -0.255106
C      -0.362412   -2.098516    0.268812
C       0.565254   -1.023894    0.958307
C       1.209571   -0.868012   -0.406052
C       0.746356   -2.251797   -0.830708
C       1.747575   -3.359451   -0.517228
O       0.326297   -2.320891   -2.182830
H       0.972878    1.831171    0.344277
H      -0.184460    1.876972   -0.992169
H      -0.763693    1.857097    0.680836
H      -2.048366   -0.696223    0.448991
H      -1.644622   -1.041656   -1.269431
H      -0.793081   -2.979907    0.742877
H       0.973084   -0.914856    1.952514
H       2.149956   -0.386175   -0.646898
H       2.089731   -3.309092    0.519771
H       1.289034   -4.345422   -0.668762
H       2.618817   -3.286629   -1.176011
H       0.139517   -3.241560   -2.395607
