23

C      -0.119255    1.486949   -0.034021
C       0.010625   -0.033315   -0.012545
O      -1.263607   -0.624236   -0.206851
C       1.208265   -0.587207   -0.859112
C       2.081246   -0.406245    0.417775
C       0.763059   -0.597229    1.225791
C       0.446414   -2.095147    1.383072
C       0.956289   -2.903087    0.163333
C       0.973766   -2.078959   -1.148321
H       0.831528    1.990932    0.154341
H      -0.478300    1.826897   -1.014680
H      -0.838832    1.813441    0.723776
H      -1.699992   -0.168470   -0.933983
H       1.485406   -0.032330   -1.761282
H       2.884262   -1.126724    0.587681
H       2.493267    0.599986    0.509698
H       0.642501   -0.054440    2.168140
H       0.914548   -2.477431    2.297329
H      -0.633889   -2.212912    1.502145
H       1.976676   -3.241295    0.372417
H       0.363438   -3.813589    0.033814
H       0.022021   -2.184885   -1.678094
H       1.756592   -2.461240   -1.813128
