19

C       0.036632    1.718100   -0.380144
C       0.044652    0.202896   -0.413095
C       0.572715   -0.673091   -1.480173
C       1.899832   -0.209385   -2.061219
O       1.836811    1.011193   -2.774182
C       2.463430   -0.250613   -0.603793
C       3.153396    0.943467    0.034264
N       1.138791   -0.723165   -0.050878
H       0.775456    2.160202   -1.044130
H      -0.949483    2.065131   -0.708280
H       0.189752    2.084830    0.640647
H      -0.866665   -0.208549    0.021806
H      -0.004871   -1.496273   -1.889539
H       2.359242   -0.987868   -2.682701
H       2.699735    1.172951   -3.168637
H       3.128520   -1.116177   -0.513856
H       2.651760    1.890306   -0.162542
H       3.205519    0.801503    1.118941
H       4.181401    1.023376   -0.337552
