21

C      -0.035168    1.564524    0.013238
C       0.012557    0.035007   -0.010310
C       0.705979   -0.501436   -1.273907
C       0.813029   -2.032010   -1.260547
C       1.490237   -2.498731    0.050385
N       0.851342   -1.986238    1.267095
C       0.719096   -0.526585    1.238513
C       1.560653   -3.964254    0.111978
N       1.592158   -5.118908    0.131911
H       0.975694    1.988956    0.018302
H      -0.555575    1.958879   -0.865625
H      -0.554894    1.934105    0.903613
H      -1.020105   -0.346228   -0.003600
H       0.170167   -0.172980   -2.171432
H       1.714448   -0.067123   -1.338945
H      -0.184612   -2.484430   -1.318516
H       1.380854   -2.394702   -2.123968
H       2.524655   -2.124435    0.052672
H      -0.065413   -2.414266    1.364938
H       1.730774   -0.099198    1.301155
H       0.193567   -0.219955    2.149088
