23

C      -0.155675    1.338937    0.126691
O       0.022599   -0.047308   -0.053354
C       0.705094   -0.489140   -1.235455
C       0.013949    0.006488   -2.513668
C       2.174621   -0.044862   -1.203544
C       0.621516   -2.047011   -1.101957
C      -0.825269   -2.577703   -1.022875
C       1.360835   -2.733562   -2.159204
C       1.940664   -3.317738   -3.036535
H       0.795269    1.886541    0.185411
H      -0.769345    1.793059   -0.663280
H      -0.678450    1.459903    1.079206
H       0.180452    1.076135   -2.668497
H       0.417739   -0.521076   -3.381909
H      -1.064087   -0.168867   -2.471636
H       2.643067   -0.352437   -0.263578
H       2.728052   -0.495536   -2.030473
H       2.264517    1.041235   -1.294650
H       1.107330   -2.272795   -0.143491
H      -0.817851   -3.643448   -0.780132
H      -1.373537   -2.039052   -0.248893
H      -1.345682   -2.459372   -1.976876
H       2.462405   -3.834735   -3.803338
