18

O       0.255881    1.162715    0.465578
C      -0.009808   -0.126349   -0.017080
C      -1.498943   -0.416704   -0.062039
C      -2.285808   -0.171543   -1.326174
C      -1.891064   -1.574435   -0.935687
C      -0.760509   -2.283423   -1.648175
O       0.258483   -1.391143   -2.129938
C       0.628342   -0.324750   -1.384992
N       1.479254    0.524173   -1.785334
H       0.928037    1.525325   -0.135821
H       0.449319   -0.877191    0.654409
H      -2.003195   -0.276456    0.887864
H      -3.330079    0.100076   -1.223999
H      -1.785237    0.299874   -2.165020
H      -2.671413   -2.247262   -0.592527
H      -0.297953   -3.025473   -0.982978
H      -1.110196   -2.807022   -2.542490
H       1.840891    0.296483   -2.710759
