17

O       0.149375    1.262273   -0.425608
C       0.134283   -0.099250   -0.092387
C       0.149443   -0.446347    1.402586
O       0.847234   -0.225310    2.341238
O      -1.033393   -1.126215    1.357195
C      -1.256930   -0.770067   -0.054904
C      -2.510886    0.033770   -0.425191
C      -2.626251   -0.850104   -1.702112
C      -1.660152   -1.875449   -1.038894
H       0.868384    1.679167    0.062841
H       0.872687   -0.678248   -0.665673
H      -3.315503   -0.163373    0.287752
H      -2.379537    1.109455   -0.545187
H      -3.620770   -1.210884   -1.967172
H      -2.181318   -0.368280   -2.575473
H      -0.870112   -2.322427   -1.647450
H      -2.201956   -2.669726   -0.518789
