17

C      -0.090260    1.559234    0.002301
C      -0.014178    0.040412   -0.004199
C       1.234085   -0.646562   -0.638174
N       2.017874   -0.160938    0.579710
C       0.704338   -0.680040    1.192029
C       0.408322   -0.621275    2.658078
C       0.904313   -1.876638    0.231451
O       0.975180   -3.068004    0.235981
H       0.868514    2.003452    0.272618
H      -0.381599    1.930638   -0.985633
H      -0.847524    1.900545    0.716455
H      -0.967866   -0.414189   -0.287723
H       1.629088   -0.555927   -1.648044
H       2.796009   -0.792777    0.791105
H       0.438448    0.409474    3.024401
H      -0.587050   -1.030147    2.857902
H       1.132951   -1.211433    3.228193
