17

C       0.268652    1.559972    0.121548
C       0.044295    0.033318    0.025089
C       0.707093   -0.688313    1.218933
C      -1.480463   -0.311159   -0.057073
C      -2.265820    0.270635    1.105329
O      -2.362056   -0.260341    2.182386
C       0.661301   -0.450924   -1.221119
N       1.142995   -0.828981   -2.201572
H       1.335967    1.791499    0.087714
H      -0.220614    2.087958   -0.701622
H      -0.129952    1.939146    1.067260
H       0.222224   -0.391605    2.151382
H       0.617755   -1.772892    1.118541
H       1.768850   -0.434421    1.274566
H      -1.884839    0.076994   -0.997131
H      -1.598306   -1.398333   -0.044425
H      -2.758694    1.248393    0.908577
