18

C      -0.070850    1.661831    0.095627
C      -0.010595    0.141255    0.040239
C      -1.386296   -0.521055    0.079164
C      -1.265134   -2.038904    0.223739
N      -2.306402   -2.755624   -0.281601
O      -0.321727   -2.560871    0.789420
O       0.625393   -0.235310   -1.197482
C       1.707097   -1.042864   -1.149164
O       2.278798   -1.397153   -2.136426
H       0.936040    2.084458    0.046567
H      -0.648328    2.059080   -0.744637
H      -0.539603    1.993223    1.027213
H       0.579717   -0.252797    0.874714
H      -1.944533   -0.147237    0.946216
H      -1.955818   -0.247728   -0.815700
H      -3.002600   -2.336515   -0.872857
H      -2.241543   -3.760847   -0.257754
H       1.988300   -1.325540   -0.120043
