18

N      -0.129667    1.289853    0.659760
C       0.008261   -0.027189    0.236843
O       1.093997   -0.554820    0.136039
N      -1.191514   -0.679977   -0.106096
C      -2.409271   -0.006661   -0.157185
N      -3.524941   -0.617778   -0.153579
C      -1.179507   -2.120061   -0.249954
C      -1.741253   -2.732290   -1.503234
C      -0.260080   -2.765195   -1.249648
H       0.752964    1.652922    0.989669
H      -0.910776    1.524203    1.253032
H      -2.287594    1.076043   -0.238994
H      -4.284578    0.054809   -0.244566
H      -1.362453   -2.648550    0.680824
H      -2.326301   -3.637392   -1.390774
H      -2.111287   -2.054089   -2.262092
H       0.374953   -2.110083   -1.830143
H       0.209620   -3.696774   -0.955226
