19

C      -0.091743    1.465249    0.041410
C       0.041862   -0.027811   -0.000707
C       0.919626   -0.892174   -0.889288
N       0.075441   -2.097063   -0.524908
C       0.409648   -2.253859    0.945853
C      -0.285094   -0.934101    1.216010
C      -1.025502   -1.086501   -0.086940
C      -2.453845   -1.131594   -0.502068
H       0.796617    1.934523    0.480254
H      -0.225187    1.880897   -0.964070
H      -0.954494    1.772293    0.642789
H       0.790782   -0.665499   -1.952324
H       1.988697   -1.000789   -0.667686
H      -0.132477   -3.112442    1.352252
H       1.479590   -2.364191    1.158856
H      -0.645291   -0.508503    2.145645
H      -3.003862   -0.290042   -0.067343
H      -2.552842   -1.073530   -1.591815
H      -2.937971   -2.057175   -0.171194
