13

N       0.106408    1.348523    0.194655
C      -0.052022   -0.010582    0.062123
C      -1.210237   -0.711798    0.015064
N      -1.200499   -2.091185   -0.025744
C      -0.080647   -2.689960   -0.033626
F      -0.040952   -4.011856   -0.073407
C       1.229057   -2.037421   -0.006532
N       2.338739   -2.641562   -0.029136
O       1.146182   -0.647735    0.044401
H       0.965987    1.711233   -0.192751
H      -0.704558    1.898608   -0.044794
H      -2.172412   -0.218109    0.019106
H       3.117920   -1.983323   -0.000397
