20

C      -0.027945    1.377910   -0.010629
O       0.010217   -0.029784    0.012034
C       0.680780   -0.545358    1.136364
C       0.646379   -2.071518    1.029420
N       1.311617   -2.719254    2.141228
C       2.653489   -3.012172    2.208328
C       2.921580   -3.535328    3.451611
C       1.695516   -3.557831    4.172107
C       0.725734   -3.047515    3.341192
H       0.983476    1.812858   -0.037520
H      -0.565203    1.675660   -0.914127
H      -0.553137    1.785790    0.867256
H       1.725804   -0.195242    1.173454
H       0.195572   -0.223831    2.072969
H      -0.393715   -2.407086    0.988514
H       1.125873   -2.378842    0.095772
H       3.294881   -2.828002    1.360582
H       3.884596   -3.876943    3.798937
H       1.539920   -3.919978    5.176784
H      -0.331578   -2.894499    3.491703
