21

C      -0.099011    1.585529    0.040840
C       0.033088    0.059469    0.040865
C       0.732425   -0.508080   -1.244314
C       1.492735   -1.745913   -0.743459
C       3.070606   -1.904972   -0.722274
O       3.793388   -0.739010   -1.026487
C       2.964059   -2.210571    0.825972
C       1.624508   -1.515288    0.737829
C       0.916121   -0.477465    1.172252
H       0.885606    2.064945   -0.010830
H      -0.683120    1.928107   -0.819883
H      -0.599075    1.944694    0.946687
H      -0.980130   -0.363440    0.119656
H       0.023565   -0.717146   -2.050348
H       1.446917    0.234455   -1.623269
H       1.024151   -2.697974   -1.018008
H       3.492123   -2.695980   -1.346473
H       3.466277   -0.032555   -0.455383
H       2.886549   -3.286846    1.012627
H       3.739795   -1.787295    1.469262
H       0.970762   -0.002828    2.146462
