21

C      -0.424833    1.356129   -0.853071
O      -0.588973   -0.040694   -0.788034
C      -0.779194   -0.510360    0.529607
C      -1.041873   -2.001282    0.466874
C       0.094107   -2.923488    0.603245
O      -0.792318   -2.677216    1.704391
C      -2.286633   -2.405360   -0.266690
C      -2.934172   -3.736929   -0.006163
C      -3.597617   -2.472466    0.481033
H      -0.289009    1.621171   -1.904311
H      -1.305406    1.889272   -0.461260
H       0.457843    1.690161   -0.285145
H       0.106337   -0.316798    1.155485
H      -1.638286   -0.003689    1.001048
H       0.024305   -3.918823    0.169441
H       1.102334   -2.530367    0.723371
H      -2.323716   -2.018224   -1.279569
H      -3.371979   -4.265420   -0.845449
H      -2.480751   -4.369300    0.748541
H      -3.572584   -2.286958    1.549406
H      -4.494111   -2.124739   -0.019708
