21

C       0.025393    1.582430   -0.105939
C       0.145429    0.062091   -0.028077
C       1.075347   -0.570448   -1.078883
O       1.359330   -1.879271   -0.597465
C       1.418833   -1.835720    0.811247
C       2.761775   -1.328495    1.428412
O       3.813864   -1.311222    0.494180
C       2.086446    0.029829    1.779227
C       0.715430   -0.521458    1.278328
H       0.994651    2.074381    0.023292
H      -0.374042    1.893882   -1.077109
H      -0.649036    1.966008    0.666318
H      -0.850916   -0.376932   -0.166551
H       0.613513   -0.670673   -2.065311
H       2.002781    0.012322   -1.187214
H       1.069409   -2.799072    1.190412
H       3.030615   -1.904179    2.326251
H       4.585747   -0.928514    0.923664
H       2.119332    0.318128    2.832717
H       2.485646    0.853071    1.180533
H      -0.040698   -0.623230    2.058312
