19

C      -0.250585    1.335057   -0.039057
N       0.261162   -0.018106    0.080354
C       0.787257   -0.633133   -1.047828
N       0.737050   -1.956763   -1.168500
N       1.413492   -2.218616   -2.331580
C       1.564762   -3.576877   -2.786697
C       1.829379   -1.085316   -2.943068
N       2.575488   -1.133772   -4.128356
C       1.449932   -0.021416   -2.141632
H       0.564431    2.023907   -0.284963
H      -1.034613    1.452670   -0.804751
H      -0.658793    1.646666    0.925736
H      -0.352340   -0.646586    0.580579
H       0.696980   -3.920489   -3.365033
H       2.460673   -3.647458   -3.408563
H       1.676439   -4.223283   -1.914549
H       2.082338   -1.579851   -4.893972
H       2.856598   -0.207016   -4.419960
H       1.628358    1.024547   -2.327152
