12

N       0.201070    1.329922   -0.302992
C       0.041261   -0.019102   -0.066385
C      -1.072146   -0.806863   -0.007448
O      -0.722390   -2.074846    0.337298
N       0.621998   -2.152185    0.515051
C       1.088412   -0.938485    0.272984
C       2.523153   -0.663066    0.331305
O       2.994994    0.424728    0.065686
H       1.159123    1.586006   -0.500622
H      -0.473693    1.758911   -0.917173
H      -2.123331   -0.637073   -0.169801
H       3.156172   -1.522009    0.624994
