23

C      -0.347482    1.441424    0.020532
C       0.193788    0.015740   -0.118821
O       1.195131   -0.067052   -1.123495
C       0.744087   -0.535577    1.198015
O       1.892936    0.240567    1.521416
C       2.766919   -0.334157    2.460751
C       2.239166   -0.371244    3.877634
C       3.675915   -1.425493    1.949779
C       4.209753   -0.026976    2.201426
H       0.428041    2.108452    0.408461
H      -0.672315    1.811810   -0.955015
H      -1.200222    1.474634    0.707570
H      -0.614231   -0.648963   -0.447760
H       1.981325    0.334271   -0.732770
H      -0.012881   -0.473820    1.993485
H       1.028103   -1.588300    1.065750
H       1.362031   -1.021216    3.965976
H       3.002332   -0.751270    4.562407
H       1.953642    0.634142    4.204451
H       3.967190   -2.223985    2.623674
H       3.550015   -1.725819    0.915490
H       4.431643    0.584237    1.334238
H       4.862158    0.137104    3.052050
