20

C      -0.147550    1.648736    0.089760
C       0.024051    0.126472    0.081833
C      -1.206160   -0.579428   -0.494451
O      -1.402765   -0.322701   -1.876153
C       1.272221   -0.662679   -0.254399
C       2.599583   -0.151907    0.369890
N       2.354282    1.106470    1.121035
C       2.017788   -0.211685    1.723150
C       0.668339   -0.731910    1.151101
H       0.550796    2.144328   -0.586332
H      -1.168072    1.910951   -0.223877
H       0.011179    2.074370    1.079306
H      -1.098945   -1.665755   -0.413257
H      -2.092187   -0.288812    0.092953
H      -1.513625    0.627342   -1.985365
H       1.257812   -1.421008   -1.027816
H       3.590059   -0.411730    0.019847
H       3.250933    1.385594    1.520368
H       2.454271   -0.526119    2.662134
H       0.145272   -1.562586    1.611402
