18

O       0.488570    1.046607   -0.577318
C       0.164119   -0.210134   -0.041452
C       0.333771   -0.495675    1.485231
C      -0.177129    0.597376    2.437339
O      -1.521590    0.063861    2.436311
C      -1.139937   -1.006107    1.543983
C      -1.316754   -0.625368    0.074249
C      -2.476876    0.030096   -0.565557
N      -2.113982   -1.360365   -0.901060
H      -0.088408    1.702401   -0.170646
H       0.741089   -0.936169   -0.624887
H       1.206382   -1.067741    1.793925
H       0.262070    0.566514    3.441151
H      -0.131180    1.633098    2.072559
H      -1.478086   -1.989320    1.875917
H      -3.402339    0.146088   -0.009617
H      -2.272441    0.810273   -1.295393
H      -1.626425   -1.385640   -1.795188
