16

N       0.086333    1.461587   -0.127121
C       0.059012    0.058556    0.024565
C      -1.019293   -0.769973   -0.005796
O      -2.338296   -0.488758   -0.054694
O      -0.644144   -2.075719    0.059954
C       0.722232   -2.078974    0.148423
C       1.207465   -0.809590    0.134169
C       2.646781   -0.393155    0.172150
O       3.533171   -1.443395   -0.182530
H       0.498878    1.925275    0.675829
H      -0.853938    1.823368   -0.242050
H      -2.755032   -1.017054   -0.746842
H       1.190535   -3.045326    0.213415
H       2.783035    0.494091   -0.467095
H       2.944426   -0.095315    1.185625
H       3.279413   -1.739643   -1.063407
