19

C      -0.198733    1.581941   -0.056778
C       0.061554    0.084225   -0.045607
O       1.077988   -0.223449   -1.052597
C       2.080393   -0.828499   -0.391699
N       1.985729   -1.053770    0.853193
C       0.663178   -0.539450    1.263261
C       0.783488    0.404668    2.449353
C       1.747330    0.127656    3.538017
N       1.966785    1.261028    2.615006
H       0.669856    2.141670    0.298144
H      -0.442401    1.908458   -1.071235
H      -1.047323    1.823931    0.590033
H      -0.838733   -0.455022   -0.353987
H       2.934401   -1.088392   -1.008708
H       0.046290   -1.391186    1.577121
H      -0.149792    0.898488    2.713114
H       1.504723    0.407698    4.559081
H       2.385636   -0.743343    3.428525
H       2.665653    0.965956    1.933970
