17

C       0.685892    1.120617    1.360152
N      -0.111022    0.478802    0.316937
C       0.444390   -0.794063   -0.156279
C       0.489475   -1.928978    0.824058
C      -0.452711   -2.898751    1.114094
N      -1.708159   -3.114141    0.617679
O      -0.018954   -3.685479    2.076091
N       1.342952   -3.150875    2.429549
N       1.531820   -2.176040    1.678154
H       1.665917    1.388007    0.949315
H       0.189940    2.045379    1.669134
H       0.858675    0.502634    2.255087
H      -1.051247    0.320255    0.666620
H      -0.136920   -1.102555   -1.035643
H       1.462268   -0.600660   -0.512164
H      -1.884050   -2.744591   -0.304286
H      -2.074973   -4.043336    0.760826
