20

C       0.116975    1.478486    0.173056
C      -0.041003   -0.031273   -0.048974
C      -1.519850   -0.439412   -0.056230
C       0.684514   -0.496865   -1.333952
C       2.242395   -0.469734   -1.251281
O       2.309234   -1.902388   -1.180647
C       0.903264   -2.038180   -1.439031
C       0.123353    0.125044   -2.527336
N      -0.322737    0.619437   -3.472893
H       1.168865    1.779725    0.205914
H      -0.370856    2.044691   -0.627213
H      -0.341924    1.774005    1.121098
H       0.462509   -0.559145    0.771927
H      -2.060757    0.064587   -0.863943
H      -1.646161   -1.518704   -0.188413
H      -1.995611   -0.163642    0.889449
H       2.740958   -0.071699   -2.142253
H       2.652037    0.009955   -0.355579
H       0.395413   -2.633053   -0.671958
H       0.699453   -2.462785   -2.428476
