14

C       0.136843    1.453914    0.148772
N       0.145675   -0.000684    0.094723
C       0.377285   -0.581875   -0.992992
N       0.394936   -1.967351   -1.087620
C       0.638685   -2.685303   -2.231833
O       0.648570   -3.894115   -2.288227
C       0.889698   -1.800907   -3.396328
N       0.888911   -0.524489   -3.382179
O       0.629471    0.107414   -2.166002
H       1.103044    1.881796   -0.145750
H      -0.626684    1.884519   -0.510772
H      -0.078984    1.763205    1.173305
H       0.210218   -2.469150   -0.228795
H       1.093888   -2.268337   -4.353418
