16

C       0.716493    1.146088    0.252358
N       0.974116   -0.254468   -0.021310
C       0.564509   -0.709492   -1.113460
O       0.808358   -2.036310   -1.398758
C       0.304480   -2.543708   -2.559987
O      -0.378634   -1.935145   -3.334565
C       0.709732   -4.006446   -2.710519
C       2.153231   -4.198852   -2.741636
C       3.342723   -4.354812   -2.783991
H       1.669315    1.659554    0.419570
H       0.170921    1.667989   -0.548466
H       0.141619    1.230121    1.180752
H       0.023248   -0.183211   -1.902231
H       0.276116   -4.559990   -1.867694
H       0.242083   -4.371919   -3.628400
H       4.395273   -4.492818   -2.813074
