14

N       0.113201    1.394116    0.242017
C       0.017518    0.012047    0.036328
C      -1.077846   -0.827770    0.118788
N      -0.612093   -2.093251   -0.081574
N       0.711915   -2.144990   -0.300833
C       1.085633   -0.876425   -0.221617
O       2.379620   -0.469299   -0.410200
C       3.378235   -1.218713    0.149840
O       4.525419   -0.965384   -0.041046
H       0.993116    1.757787   -0.101924
H      -0.649159    1.915060   -0.171385
H      -2.120146   -0.625250    0.304137
H      -1.143127   -2.945049   -0.118940
H       2.982350   -2.040066    0.766622
