17

C      -0.526134    1.323576    0.043091
O       0.861755    0.979344   -0.072387
C      -0.078766   -0.069986    0.036768
C      -0.080642   -1.130948    1.145527
C      -0.460805   -2.197441    0.072692
O      -1.826350   -2.566919    0.004390
C      -2.485065   -1.592701   -0.780019
O      -1.550786   -1.109857   -1.722847
C      -0.304796   -1.130606   -1.058846
H      -0.813353    1.790547    0.984319
H      -0.979348    1.745272   -0.852412
H       0.911946   -1.293585    1.574376
H      -0.805760   -1.002720    1.952361
H       0.143138   -3.104384    0.047827
H      -3.319076   -2.060692   -1.309392
H      -2.852655   -0.768710   -0.144319
H       0.495023   -1.229271   -1.793886
