16

C      -0.601175    1.404772    0.037366
C      -0.091502   -0.024003   -0.007466
O       1.093505   -0.174108   -0.849459
C       1.916447   -0.611238    0.238249
C       3.058786    0.331029    0.593930
O       3.196718    1.427944    0.125896
C       0.717613   -0.523302    1.167875
N       0.446364   -0.746317    2.378258
O       1.579910   -1.201346    3.071808
H       0.202470    2.087360    0.323223
H      -0.972428    1.695826   -0.949527
H      -1.420473    1.487775    0.758131
H      -0.879295   -0.717847   -0.327922
H       2.314581   -1.628312    0.103928
H       3.752502   -0.088449    1.354345
H       1.240418   -1.334013    3.963962
