19

C       0.036017    1.468118   -0.304069
C      -0.049146    0.007637    0.158184
C      -1.459473   -0.535077    0.198720
C      -2.510680    0.004262    1.099363
C      -3.526326   -0.865550    1.207291
C      -3.257510   -1.994156    0.249239
O      -3.405918   -1.389443   -1.113006
C      -2.017048   -1.182029   -1.137437
C      -1.714155   -2.021755    0.049870
H       1.074422    1.812680   -0.324970
H      -0.382117    1.588495   -1.308603
H      -0.519387    2.132670    0.365684
H       0.552214   -0.619933   -0.512752
H       0.408389   -0.092201    1.151598
H      -2.476885    1.000440    1.524530
H      -4.470539   -0.706773    1.711023
H      -3.834742   -2.914173    0.320323
H      -1.541456   -1.015650   -2.097177
H      -1.007025   -2.818652    0.246477
