16

C       1.373912    0.467598   -0.130149
O       0.359582   -0.045240   -0.995408
C      -0.036897    0.457474    0.284086
C      -0.560044   -0.477480    1.340379
C      -1.908954   -1.253581    1.234100
C      -1.286936   -2.240903    0.218691
C      -0.294651   -2.011073    1.383914
O      -1.430373   -2.127725    2.330375
H       2.056403   -0.276032    0.278714
H       1.838353    1.397669   -0.453666
H      -0.574338    1.406639    0.227578
H      -0.449037   -0.016049    2.326735
H      -2.928690   -0.873464    1.305204
H      -1.751714   -3.227501    0.214817
H      -1.010454   -1.877614   -0.769251
H       0.622032   -2.545587    1.635353
