18

C       0.668773    0.393229    1.221531
C       0.044080    0.069598   -0.123392
O       0.371240    0.626823   -1.145066
C      -1.173554   -0.841200   -0.100050
C      -1.399309   -2.044304   -0.966412
C      -0.147777   -2.960273   -1.052125
N       0.941614   -2.339881   -0.261488
C      -0.121425   -3.112848    0.416498
C      -1.361649   -2.184613    0.560891
H       1.567361    0.994627    1.074943
H      -0.048767    0.968810    1.820677
H       0.905850   -0.516088    1.776837
H      -2.080334   -0.240291   -0.019341
H      -2.247770   -2.146038   -1.629924
H       0.067344   -3.667721   -1.841306
H       1.770473   -2.926274   -0.345092
H       0.105177   -3.969266    1.037564
H      -2.180862   -2.397724    1.235436
