18

C       0.635269    0.433459   -0.912551
C      -0.458514    0.715057    0.091794
O      -0.486701    1.714385    0.775520
C      -1.569388   -0.322665    0.230823
N      -1.262688   -1.702988   -0.231383
C      -1.784316   -2.299437    1.032059
C      -1.841453   -0.894647    1.634915
C      -1.484331   -0.382581    2.955091
O      -2.851183   -0.442044    2.497127
H       1.355134    1.252481   -0.914769
H       1.121636   -0.516482   -0.672956
H       0.206137    0.310191   -1.914193
H      -2.488103    0.116580   -0.185358
H      -1.770405   -1.988428   -1.060505
H      -2.784439   -2.743593    0.954787
H      -1.104901   -3.023003    1.494419
H      -1.233899   -1.081878    3.751470
H      -1.071900    0.618955    3.040574
