20

O      -0.003546    1.370842    0.115080
C       0.023396   -0.027030   -0.029547
C      -0.552578   -0.623198   -1.288359
C      -1.316857   -0.708475    0.020944
C      -1.459806   -2.011857    0.786164
C      -0.195210   -2.896495    0.743031
C       1.066957   -2.121222    1.100139
N       1.953897   -1.734992   -0.016638
C       1.174993   -0.696806    0.681176
H       0.662170    1.737421   -0.477848
H      -0.923748    0.081996   -2.023914
H      -0.073961   -1.505674   -1.695177
H      -2.159923   -0.029323    0.105244
H      -1.696730   -1.774160    1.832046
H      -2.312097   -2.582521    0.398134
H      -0.324098   -3.737052    1.432047
H      -0.072773   -3.328658   -0.255035
H       1.543512   -2.390807    2.039579
H       2.921730   -1.713260    0.293544
H       1.702466   -0.014104    1.343089
