19

O      -0.078689    0.015482   -0.005725
C       0.034585    1.214778    0.044849
C       1.335027    1.958490    0.023171
C       2.627243    1.115523   -0.034044
C       3.698180    2.162297   -0.482421
C       2.854739    3.442935   -0.635207
C       1.525788    2.915991   -1.191461
O       2.488767    3.907761    0.672150
C       1.494751    2.994330    1.161100
H      -0.865897    1.871308    0.100381
H       2.853757    0.660454    0.933114
H       2.513635    0.302385   -0.754431
H       4.485659    2.312445    0.259087
H       4.173199    1.881550   -1.427449
H       3.331205    4.267974   -1.165825
H       1.618047    2.380850   -2.139701
H       0.758769    3.690216   -1.269600
H       0.562220    3.538783    1.366652
H       1.836670    2.527385    2.092247
