21

C       0.048535    1.501444   -0.141755
C      -0.024464    0.017212    0.235932
C      -1.421687   -0.558802    0.101539
O      -2.377023    0.007177    0.955666
C      -1.907678   -1.051039   -1.261711
C      -1.607535   -2.023361   -0.155850
C      -0.604056   -3.169939   -0.079016
C      -1.763918   -3.915675    0.615244
O      -2.643333   -2.776609    0.467954
H       1.066127    1.887739   -0.033433
H      -0.264072    1.663045   -1.179302
H      -0.599956    2.100859    0.505831
H       0.664878   -0.557923   -0.393287
H       0.307523   -0.114712    1.273534
H      -2.659174    0.844941    0.573671
H      -2.961701   -0.905105   -1.476202
H      -1.243866   -0.995052   -2.119962
H      -0.293754   -3.582347   -1.041183
H       0.277006   -2.986316    0.538863
H      -2.149791   -4.795459    0.088419
H      -1.601952   -4.167245    1.669498
