17

N      -0.095015    1.043006   -0.707783
C       0.003253   -0.030489   -0.022115
N      -1.090536   -0.537855    0.645303
C      -1.354244   -1.940108    0.957697
C      -0.437912   -2.932442    0.246239
O       0.858909   -3.046908    0.808064
C       1.480078   -1.838357    1.208550
C       1.362748   -0.705710    0.189215
O       2.327778   -0.283289   -0.401480
H       0.836587    1.295051   -1.043311
H      -1.910190    0.028736    0.479445
H      -1.298882   -2.122066    2.040794
H      -2.382741   -2.164338    0.653989
H      -0.871166   -3.934125    0.321053
H      -0.379072   -2.672246   -0.822580
H       1.067607   -1.479537    2.166137
H       2.539378   -2.062297    1.343360
