21

O      -0.057330    1.454514    0.002912
C       0.032306    0.037298   -0.013967
C      -1.387099   -0.532604    0.049185
C      -1.391241   -2.055114   -0.147292
C      -2.775097   -2.638374    0.154620
C      -3.194103   -2.369022    1.608133
O      -2.601793   -3.304555    2.520880
C      -2.879536   -0.955375    2.025742
C      -2.073559   -0.145719    1.336663
H       0.832139    1.814344    0.062000
H       0.525673   -0.318229   -0.932743
H       0.616868   -0.336012    0.842506
H      -1.935765   -0.065492   -0.784025
H      -1.077434   -2.307259   -1.165927
H      -0.651857   -2.511362    0.526835
H      -3.515435   -2.185492   -0.517813
H      -2.794066   -3.718744   -0.016922
H      -4.271302   -2.550331    1.704712
H      -1.709963   -2.993044    2.706696
H      -3.320453   -0.621862    2.962189
H      -1.875860    0.862676    1.689857
