19

C      -0.997512    0.885322    0.157275
C       0.288285    0.111528   -0.042260
O       1.240768    0.213935    0.702668
C       0.375154   -0.799763   -1.214519
C       1.636412   -1.455921   -1.784033
C       0.756385   -2.663247   -2.249934
C      -0.473673   -1.960116   -1.647499
C      -1.707404   -2.597941   -1.096530
O      -0.580468   -0.690857   -2.286968
H      -1.208366    1.499906   -0.723183
H      -1.848037    0.205189    0.271611
H      -0.905149    1.511091    1.045631
H       2.137706   -0.879843   -2.564426
H       2.348909   -1.718838   -1.001814
H       0.690429   -2.841850   -3.325771
H       1.011198   -3.595067   -1.739929
H      -1.450524   -3.376285   -0.371622
H      -2.355128   -1.863371   -0.613070
H      -2.278069   -3.068568   -1.905767
