21

C      -0.095327    1.468045    0.027184
C       0.032863   -0.026419   -0.025689
C       0.045148   -0.873486   -1.303175
C      -0.215022   -2.083728   -0.365582
O      -0.940428   -3.193213   -0.774334
C       1.101936   -2.209454    0.447598
C       0.702847   -0.873424    1.084301
C       1.297064   -0.292251    2.334019
C      -0.755821   -1.081444    0.725651
H       0.805234    1.960378   -0.359699
H      -0.943181    1.807272   -0.578768
H      -0.256906    1.830155    1.046954
H      -0.834430   -0.659522   -1.918652
H       0.948124   -0.889664   -1.927689
H      -0.426531   -3.661964   -1.441763
H       1.034575   -3.022267    1.177698
H       2.046538   -2.278245   -0.107958
H       2.333440    0.028371    2.172143
H       0.734927    0.576277    2.690145
H       1.302872   -1.032258    3.142391
H      -1.665340   -1.037842    1.307903
