19

C      -0.057671    1.526361    0.148662
N       0.016544    0.083083    0.147513
C      -1.224119   -0.675028    0.426775
C      -0.413167   -1.620197    1.341765
O      -0.953323   -1.985491    2.576606
C       0.499190   -2.660776    0.616707
C       1.710064   -1.678935    0.739337
C       0.747859   -0.586977    1.254267
H       0.944868    1.949846    0.024171
H      -0.669450    1.865646   -0.694627
H      -0.495121    1.947305    1.074346
H      -1.954421   -0.110231    1.028063
H      -1.722443   -1.086235   -0.460227
H      -1.514457   -2.757843    2.443987
H       0.614641   -3.589755    1.180590
H       0.194234   -2.897944   -0.405338
H       2.428980   -2.001717    1.497453
H       2.238298   -1.433845   -0.183741
H       1.040767    0.057162    2.088937
