23

O      -0.029227    1.477292    0.014387
C       0.047920    0.072184    0.113562
C      -1.347131   -0.558347    0.059512
O      -2.030248   -0.037410   -1.091435
C      -1.336279   -2.087241    0.080690
C      -0.710184   -2.672615    1.377147
C      -1.519666   -3.945638    1.669149
C      -2.948730   -3.538280    1.282144
C      -2.762432   -2.717873   -0.011509
H      -0.720328    1.644044   -0.640506
H       0.662678   -0.357559   -0.700626
H       0.547769   -0.165638    1.058082
H      -1.931477   -0.182026    0.909015
H      -1.646831   -0.457519   -1.870967
H      -0.739905   -2.419588   -0.781207
H       0.364102   -2.853522    1.283514
H      -0.843885   -1.963299    2.204585
H      -1.176192   -4.766727    1.027087
H      -1.426857   -4.281446    2.706096
H      -3.623366   -4.388912    1.150658
H      -3.375231   -2.908252    2.072359
H      -3.531480   -1.953124   -0.144744
H      -2.823042   -3.376904   -0.883694
