16

O       0.076978    1.361100    0.051256
C      -0.048272   -0.013938    0.008806
C      -1.364749   -0.724385    0.007734
C      -2.605543    0.097608   -0.337696
C      -2.346414    0.585994   -1.747355
C      -1.216674    0.089404   -2.260845
C      -0.482720   -0.758831   -1.272599
C       0.245295   -1.915184   -1.697408
N       0.845620   -2.846664   -2.032567
H      -0.467721    1.737053   -0.653786
H       0.759465   -0.486887    0.556774
H      -1.466912   -1.618764    0.610290
H      -3.521062   -0.502918   -0.285448
H      -2.734747    0.930369    0.366027
H      -3.015295    1.267306   -2.260417
H      -0.826945    0.276775   -3.253588
