17

O      -0.025590    1.424453   -0.080037
C      -0.001284    0.012911    0.102739
C      -1.373578   -0.594536    0.027919
N      -2.382741   -0.055185    0.917855
C      -3.103228   -1.129892    1.428018
N      -2.819408   -2.284450    0.951730
C      -1.761961   -2.100697   -0.001892
C      -2.003413   -1.188893   -1.203983
O      -3.269230   -0.802130   -1.613054
H      -0.373956    1.598329   -0.961612
H       0.656360   -0.486558   -0.624079
H       0.430793   -0.140488    1.098381
H      -2.150430    0.749483    1.482147
H      -3.887783   -0.950709    2.155737
H      -1.047365   -2.910862   -0.102726
H      -1.334988   -1.370629   -2.042316
H      -3.583339   -0.147234   -0.974642
