22

C      -0.032260    1.519405   -0.282652
C       0.004990    0.050029    0.158064
C      -1.362012   -0.602551    0.098894
C      -1.818508   -1.353734   -1.140165
O      -0.914959   -1.574670   -2.188136
C      -1.579277   -2.111667    0.141058
C      -0.390021   -3.050210    0.228548
C      -2.805331   -2.603399    0.889148
H       0.959859    1.978010   -0.223927
H      -0.384048    1.616481   -1.316266
H      -0.709567    2.106414    0.347441
H       0.707273   -0.498916   -0.475849
H       0.398811   -0.010399    1.180702
H      -2.139084   -0.020764    0.593232
H      -2.853106   -1.230171   -1.463462
H      -0.806761   -0.746775   -2.667850
H       0.416560   -2.757335   -0.443621
H       0.002825   -3.089048    1.251197
H      -0.691560   -4.067379   -0.047052
H      -3.126699   -3.583731    0.517422
H      -2.596129   -2.706404    1.960757
H      -3.648245   -1.913037    0.782253
