17

C       0.124257    1.514640    0.010288
C       0.090550    0.060682    0.044028
C       0.057577   -1.142705    0.090034
C       0.048589   -2.579927    0.078645
O       1.114475   -3.191803   -0.595195
C      -0.434358   -3.360977    1.261450
C      -1.300476   -3.338043    0.010352
C      -2.554150   -2.652741   -0.010445
C      -3.612752   -2.081764   -0.038741
H       1.154555    1.887041    0.016127
H      -0.368920    1.907710   -0.885549
H      -0.385228    1.938104    0.882826
H       1.156647   -2.808280   -1.478727
H       0.098473   -4.280871    1.472275
H      -0.786272   -2.806424    2.121846
H      -1.235181   -4.229979   -0.605557
H      -4.544536   -1.573933   -0.063367
