14

O      -0.021228    1.432633   -0.027229
C       1.276454    0.809849    0.031719
C       0.056268   -0.004292    0.040093
C       0.102607   -0.675166   -1.321357
C       0.684175    0.351686   -2.335898
O       1.389972   -0.713668   -3.069635
C       1.601979   -1.016880   -1.657834
C       1.865184    0.500887   -1.333453
H       1.877963    1.033815    0.905963
H      -0.373114   -0.468183    0.921407
H      -0.678202   -1.356883   -1.651622
H       0.168839    1.118113   -2.910908
H       2.192757   -1.899725   -1.408703
H       2.791222    0.958032   -1.675428
