18

C      -0.139204    1.616720    0.089482
C       0.048112    0.114693   -0.023319
C       0.629886   -0.569545   -1.259804
C       2.201912   -0.289119   -1.286722
C       2.372579    0.107844    0.202294
N       1.163383   -0.578386    0.762703
C       1.056436   -1.725785   -0.270232
C       2.334617   -1.805822   -1.091273
O       2.974554   -2.691550   -1.576736
H       0.656910    2.189228   -0.392702
H      -1.082784    1.904614   -0.385285
H      -0.191537    1.913764    1.142798
H      -0.880146   -0.385085    0.272917
H       0.127167   -0.731755   -2.212438
H       2.708498    0.255994   -2.078577
H       3.280995   -0.307555    0.648128
H       2.346771    1.177051    0.409107
H       0.438869   -2.564091    0.040149
