14

O       0.481403    0.967884   -0.665880
C       0.060342   -0.165182    0.019171
C      -0.021300   -0.186770    1.567742
C      -1.289583   -1.071995    1.451811
C      -1.460632   -0.602538   -0.030795
C      -2.326084    0.554974   -0.173105
N      -2.956057    1.520190   -0.278299
H      -0.097873    1.704632   -0.433751
H       0.669388   -0.993625   -0.352792
H       0.838063   -0.577725    2.114920
H      -0.265812    0.807806    1.953724
H      -1.060737   -2.139059    1.485620
H      -2.117773   -0.862373    2.128073
H      -1.730554   -1.358075   -0.771646
