22

C       0.055321    1.598633    0.204729
C       0.112499    0.071109    0.115711
C       0.641149   -0.491356   -1.210919
C       2.054969   -0.029487   -1.553487
C       0.474200   -2.040226   -1.296492
N      -0.486009   -2.280464   -2.378010
C      -0.806776   -1.137849   -2.833700
C      -1.761546   -0.869680   -3.947282
O      -0.245587   -0.029257   -2.279989
H       1.052417    2.048714    0.182363
H      -0.521595    2.011880   -0.627197
H      -0.423295    1.910421    1.137927
H       0.736645   -0.332586    0.923523
H      -0.892478   -0.340677    0.268775
H       2.755460   -0.341994   -0.771892
H       2.378370   -0.473842   -2.499250
H       2.109553    1.057389   -1.651960
H       1.422607   -2.544041   -1.517390
H       0.096365   -2.463140   -0.358048
H      -2.156908   -1.811554   -4.325984
H      -2.584845   -0.238844   -3.597431
H      -1.259692   -0.329008   -4.755934
