14

C       0.014983    1.423187   -0.046873
O       0.015763   -0.007768   -0.025383
C       0.606089   -0.604427   -1.056826
N       1.176593    0.012978   -2.071506
N       1.621318   -1.015928   -2.839405
C       2.302365   -0.756672   -4.043057
O       2.725090   -1.602195   -4.774604
N       1.361194   -2.242710   -2.362772
C       0.720046   -2.015185   -1.236541
H       1.038835    1.809195   -0.052354
H      -0.509752    1.795127   -0.932090
H      -0.503237    1.732694    0.860441
H       2.376775    0.332898   -4.190269
H       0.368272   -2.814843   -0.604677
