14

O      -0.202930    0.034191    0.087599
C      -0.030646    1.220005   -0.050775
C       1.269570    1.882426    0.048165
C       1.736555    3.219527    0.546259
N       2.839848    2.606601    1.301063
C       2.739321    1.441129    0.366869
C       3.073454    2.011904   -1.035151
O       3.817381    1.699309   -1.917350
C       1.895996    2.951951   -0.938962
H      -0.871879    1.915078   -0.269180
H       1.151047    4.050714    0.921123
H       3.726442    3.109354    1.215250
H       3.084658    0.469446    0.706631
H       1.381812    3.501675   -1.715332
