20

C      -0.343909    1.464657   -0.218588
C       0.022690    0.011786   -0.007987
O       1.247786   -0.344573   -0.765201
C       1.941110   -0.478443    0.411959
N       3.176133   -0.411991    0.611251
C       3.545491   -0.286523    2.029828
C       2.391130   -0.235780    3.071401
C       1.097575    0.423210    2.534357
C       0.738150   -0.410778    1.308572
H       0.481562    2.126883    0.056680
H      -0.588366    1.644279   -1.269444
H      -1.218695    1.725054    0.386585
H      -0.793203   -0.652509   -0.306088
H       4.230929   -1.101131    2.291390
H       4.140106    0.633716    2.102014
H       2.141334   -1.255271    3.390764
H       2.749003    0.288811    3.963163
H       0.314886    0.423572    3.299044
H       1.287888    1.465616    2.254596
H       0.399141   -1.404926    1.616461
