16

C       0.004942    1.506768    0.094695
C      -0.074967    0.013459    0.071254
C       0.676973   -1.037772   -0.824920
C      -0.109666   -1.906729    0.212697
N       0.245637   -0.888794    1.263930
C       1.419169   -0.903871    1.981746
O       2.021171   -1.902559    2.304943
C      -1.293026   -0.948145   -0.089100
O      -2.446352   -0.939195   -0.360274
H       1.033222    1.857310    0.225016
H      -0.373101    1.908062   -0.850395
H      -0.608057    1.911265    0.905182
H       0.392656   -1.108629   -1.878265
H       1.757621   -1.055798   -0.676959
H      -0.060643   -2.973833    0.400712
H       1.704374    0.112869    2.317126
