16

C       0.004064    1.476230    0.026842
N       0.009092    0.030293   -0.024674
C       0.034746   -0.747087   -1.179748
C       0.033312   -2.068688   -0.905638
C       0.003672   -2.218600    0.602816
C      -0.011791   -0.774107    1.112161
O      -0.035077   -0.370836    2.252061
C       0.055294   -3.134690   -1.821212
C       0.073507   -4.080012   -2.570529
H       0.903634    1.893033   -0.438839
H      -0.877919    1.888096   -0.475428
H      -0.018362    1.757706    1.080841
H       0.052883   -0.265646   -2.147010
H      -0.881627   -2.751005    0.965711
H       0.877481   -2.744794    1.000925
H       0.089689   -4.903966   -3.239481
