15

N      -0.093494   -1.177906   -0.003537
C      -0.073064   -0.022881    0.002655
C      -0.024540    1.437084    0.010271
C       1.420370    1.971940   -0.000884
C       1.440211    3.514942    0.007284
C       2.788169    4.056608   -0.002819
C       3.916315    4.487965   -0.011503
C       5.189504    4.981197   -0.021179
N       6.272462    5.401166   -0.029407
H      -0.575837    1.807920   -0.862024
H      -0.558651    1.798188    0.897214
H       1.960728    1.592569    0.870733
H       1.943640    1.602082   -0.886898
H       0.893758    3.900201   -0.863917
H       0.910760    3.890690    0.893018
