16

O      -0.018921    0.032872    0.061238
C       0.005172    1.230177   -0.026366
N      -1.065223    2.119946   -0.116090
C      -0.418660    3.442856    0.027338
C       0.705940    3.302185   -1.026229
C       1.213214    2.213659   -0.007112
C       0.668630    3.196695    1.111993
C       2.539253    1.668964   -0.012269
C       3.657745    1.228920   -0.017629
H      -1.916768    1.897210    0.379555
H      -1.117626    4.275728    0.046536
H       0.420532    2.967706   -2.024690
H       1.379403    4.159379   -1.065551
H       1.342219    4.040172    1.274693
H       0.355004    2.754871    2.060720
H       4.640769    0.827510   -0.022232
