19

C      -0.005364    1.519785    0.064513
C      -0.070005    0.007547    0.249751
N      -1.320404   -0.519181   -0.290493
C      -1.619374   -1.859329   -0.132970
C      -2.863623   -2.453610    0.037696
N      -4.068355   -1.700760    0.158140
C      -2.586075   -3.840625    0.077333
N      -1.291865   -4.103811   -0.044953
N      -0.719325   -2.871341   -0.178301
H       0.942968    1.913234    0.440250
H      -0.100001    1.784750   -0.992365
H      -0.813434    2.015744    0.613882
H       0.765097   -0.455261   -0.291975
H       0.060588   -0.249491    1.314206
H      -2.134955    0.030043   -0.037064
H      -4.667388   -1.812624   -0.654533
H      -4.610773   -1.994393    0.963967
H      -3.286593   -4.655356    0.202668
H       0.274316   -2.810865   -0.309982
