23

C      -0.098553    1.518175   -0.028595
C       0.018933    0.010765    0.013569
C       1.336129   -0.670464   -0.256822
C       0.743151   -0.695949    1.142764
C       1.381039    0.053948    2.325532
C       1.484382   -0.998999    3.461654
C       0.611398   -2.145944    2.991202
C       0.301491   -3.309576    3.877896
C       0.230675   -1.963409    1.724068
H       0.814090    2.002121    0.333015
H      -0.273460    1.869215   -1.051844
H      -0.929725    1.874702    0.590763
H      -0.860318   -0.510958   -0.359180
H       1.344161   -1.590981   -0.831904
H       2.205669   -0.038544   -0.416344
H       2.351420    0.490567    2.074907
H       0.731656    0.877883    2.640651
H       2.517736   -1.343545    3.611600
H       1.158993   -0.598618    4.429981
H       1.219838   -3.807597    4.216501
H      -0.227502   -2.989673    4.785331
H      -0.318217   -4.053273    3.369104
H      -0.372948   -2.659681    1.149375
