13

N      -0.011508    1.010670    0.832671
C       0.036329   -0.038651    0.138062
O       1.201344   -0.697614   -0.162174
C       1.089379   -1.658035   -1.190592
O       0.147681   -2.660262   -0.872260
C      -1.124879   -2.201623   -0.644501
N      -2.137354   -2.949123   -0.599983
C      -1.245878   -0.709582   -0.346901
O      -2.282628   -0.116420   -0.447993
H       0.928775    1.307140    1.105255
H       0.818000   -1.169921   -2.137032
H       2.058015   -2.147731   -1.274407
H      -1.877935   -3.920892   -0.786248
