21

C       0.017469    1.484200   -0.137353
C      -0.154672   -0.023840   -0.173715
O       0.862375   -0.567509   -1.010913
C       0.822218   -1.934993   -1.121452
C       1.295093   -2.971259   -0.102130
C       1.254172   -3.968468   -1.296793
C      -0.257066   -4.102201   -1.641065
C      -0.172183   -2.641925   -2.073995
C       1.330877   -2.730654   -2.284183
H       1.001973    1.748781    0.258830
H      -0.070816    1.905616   -1.142813
H      -0.747181    1.939434    0.499210
H      -0.074241   -0.447441    0.838850
H      -1.145093   -0.299562   -0.565829
H       2.320728   -2.761589    0.214701
H       0.672411   -3.203503    0.769978
H       1.913557   -4.833063   -1.310328
H      -0.421477   -4.765673   -2.495494
H      -0.936883   -4.379242   -0.826061
H      -0.875863   -2.054114   -2.649995
H       1.964472   -2.472971   -3.119742
