23

C       0.764683   -1.006199   -1.146686
C       0.131940   -0.155206   -0.029346
C       0.724840    1.262444   -0.058256
C      -1.421478   -0.172631   -0.036239
O      -1.893092   -1.533308    0.132326
C      -2.009753    0.566879    1.178456
O      -1.505129    0.073700    2.402611
C      -2.070374    0.370854   -1.330155
O      -2.006094   -0.553245   -2.397805
H       1.853176   -1.011370   -1.031954
H       0.446924   -2.056413   -1.128268
H       0.517374   -0.620137   -2.137797
H       0.411067   -0.594135    0.936781
H       0.387330    1.867511    0.786339
H       1.816346    1.206038   -0.001929
H       0.477846    1.793035   -0.983989
H      -1.163856   -2.127994   -0.065089
H      -1.777706    1.634802    1.140619
H      -3.104612    0.463313    1.133078
H      -1.690050   -0.873474    2.389218
H      -3.117205    0.638947   -1.113120
H      -1.565205    1.281103   -1.664599
H      -2.342405   -1.380490   -2.030440
