19

O       0.375524    1.114397   -0.660320
C       0.080124   -0.192879   -0.267453
C       1.220637   -0.869792    0.426537
C       2.638516   -0.626985   -0.025650
C       2.162125   -0.072193    1.294479
C      -1.317910   -0.567268    0.222194
C      -2.338507    0.224474   -0.580471
O      -1.711009   -0.164671   -1.843055
C      -0.804128   -1.027747   -1.138556
H      -0.099701    1.255100   -1.491131
H       0.982941   -1.873998    0.766240
H       3.326846   -1.464772   -0.021267
H       2.781518    0.081157   -0.832957
H       1.996033    0.996945    1.349138
H       2.520566   -0.527250    2.211085
H      -1.506074   -1.116739    1.135181
H      -3.356160   -0.175560   -0.531343
H      -2.351680    1.311221   -0.443940
H      -0.580161   -1.994332   -1.577438
