21

C      -0.088187    1.466971   -0.058127
C      -0.021175   -0.023304    0.049321
C      -1.010618   -0.901275    0.216779
C      -2.459700   -1.178171   -0.123977
C      -1.904001   -2.470458   -0.845794
O      -1.712874   -2.314021   -2.229879
C      -0.593189   -2.333836    0.035632
C       0.840741   -2.236842   -0.512470
C       1.293165   -0.801497   -0.089364
H       0.455897    1.949191    0.764710
H       0.377097    1.824806   -0.985767
H      -1.120434    1.827262   -0.029236
H      -3.076952   -1.437501    0.742946
H      -3.001684   -0.462786   -0.748852
H      -2.486051   -3.386498   -0.721029
H      -1.235201   -1.486495   -2.367079
H      -0.681327   -2.954115    0.935719
H       1.509997   -3.019257   -0.145010
H       0.820566   -2.312688   -1.606089
H       1.956378   -0.339075   -0.830708
H       1.857757   -0.818677    0.854014
