15

C       0.027950    1.629169   -0.126940
C       0.053460    0.134077   -0.092915
C       0.749649   -0.925458   -0.881302
C       1.785829   -1.540116    0.093441
N       1.019720   -1.614762    1.391780
C       0.035493   -0.865397    1.122375
O      -1.238976   -1.381604    0.841898
C      -0.835529   -0.933883   -0.535348
H       0.952810    2.048299    0.282553
H      -0.074973    1.988623   -1.155957
H      -0.810264    2.024571    0.455797
H       0.979128   -0.792863   -1.937572
H       2.046451   -2.577475   -0.136336
H       2.714175   -0.949641    0.119376
H      -1.622712   -0.996049   -1.277945
