19

C      -0.789051    1.436536   -0.121129
N      -0.517668    0.000455   -0.086343
C      -1.319796   -0.913730    0.821633
C      -0.208758   -1.961580    0.547371
C       0.489898   -0.611591    0.872239
C      -0.475442   -0.504696    2.088250
N      -0.624026    0.737930    2.803231
C      -1.090540    0.780853    4.084620
O      -1.516305   -0.169881    4.703436
H       0.150555    1.974909   -0.291503
H      -1.434104    1.638777   -0.983504
H      -1.288433    1.866138    0.756832
H      -2.400342   -1.027848    0.726725
H      -0.089845   -2.774884    1.263654
H      -0.127191   -2.272354   -0.491825
H       1.554025   -0.369232    0.823261
H      -0.399266   -1.292945    2.839976
H      -0.236318    1.583638    2.421890
H      -1.039120    1.804969    4.505130
