18

C      -0.296100    1.489875    0.016174
C       0.114789    0.036762   -0.026321
O       1.388476   -0.159211   -0.755158
C       1.992809   -0.715925    0.355001
N       3.153287   -1.160216    0.532616
C       0.777315   -0.587294    1.200188
C       0.666615   -0.249374    2.665854
C       0.207624   -1.588508    2.154724
O      -1.159333   -1.828850    1.999325
H       0.485857    2.105175    0.470042
H      -0.492204    1.860746   -0.994214
H      -1.214358    1.600026    0.602493
H      -0.657885   -0.592698   -0.475986
H       3.717124   -1.083175   -0.314857
H       1.590318   -0.194496    3.231820
H      -0.104241    0.461527    2.945678
H       0.822810   -2.460143    2.374666
H      -1.532638   -2.009818    2.868535
