17

O       0.228497    1.390767    0.238875
C       0.081504   -0.013327    0.005454
C      -1.416800   -0.313789    0.050347
C      -2.401253    0.212065   -1.003996
O      -3.578409    0.155234   -0.768359
O      -2.023370    0.637604   -2.231584
C      -0.697909    1.086448   -2.587049
C       0.369466    0.031142   -2.467284
C       0.725532   -0.470728   -1.286450
H       1.162455    1.607566    0.148593
H       0.536122   -0.566148    0.840775
H      -1.548034   -1.402126    0.032965
H      -1.819020    0.027465    1.007971
H      -0.811752    1.409786   -3.622635
H      -0.449241    1.953311   -1.971009
H       0.838126   -0.321929   -3.381278
H       1.476929   -1.253260   -1.223326
