21

C       0.049093    1.528491   -0.318325
C       0.161851    0.041888   -0.055136
C       1.488646   -0.624090    0.091998
N       0.581452   -0.521461    1.229225
C       0.953481    0.355421    2.334553
C       1.670626   -0.427889    3.410769
C       3.170465   -0.581469    3.377843
C       2.522051    0.290793    4.424959
H       0.900857    2.090511    0.072167
H       0.000073    1.711227   -1.397148
H      -0.863252    1.941971    0.126288
H      -0.638319   -0.538338   -0.514720
H       1.667654   -1.623837   -0.295926
H       2.363927    0.026136    0.081187
H       1.590815    1.202936    2.027114
H       0.028874    0.783366    2.743365
H       1.110083   -1.286670    3.767831
H       3.599922   -1.528077    3.686314
H       3.714836   -0.088297    2.578933
H       2.632269    1.366145    4.325663
H       2.504730   -0.057610    5.451615
