18

C       0.089111    1.509527    0.078910
C      -0.014461    0.020245    0.000235
C      -0.130404   -0.725532   -1.103067
C      -0.116407   -2.186747   -0.780920
N       1.178408   -2.603220   -0.132745
C       0.022800   -2.268546    0.712707
C       0.040477   -0.844997    1.251427
C      -0.843670   -3.140888   -1.560193
C      -1.441204   -3.935347   -2.238484
H       1.051762    1.816430    0.507012
H      -0.005131    1.971867   -0.907092
H      -0.689162    1.927016    0.730617
H      -0.189739   -0.354815   -2.118801
H       1.243959   -3.619044   -0.194362
H      -0.462764   -3.059965    1.272749
H       0.945577   -0.649654    1.839610
H      -0.817458   -0.651752    1.909243
H      -1.975470   -4.636111   -2.830720
