19

C      -0.510597    1.348655    0.144332
C       0.112606   -0.022627    0.052600
C       0.055592   -0.705707   -1.103800
C       0.503715   -2.063634   -1.490050
O       0.282722   -2.439090   -2.628105
C       1.226958   -3.001398   -0.531360
C       0.993122   -2.781744    0.956881
O       1.573571   -1.561861    1.386228
C       0.715786   -0.455490    1.368673
H       0.253928    2.111331    0.339118
H      -1.037584    1.615175   -0.773254
H      -1.221916    1.401791    0.978213
H      -0.434583   -0.223455   -1.946676
H       0.959923   -4.021444   -0.825401
H       2.302210   -2.889965   -0.722720
H      -0.078242   -2.812293    1.206504
H       1.486503   -3.577459    1.525039
H       1.304793    0.380151    1.767295
H      -0.123061   -0.600017    2.077451
