18

O       0.013158    1.443239    0.055578
C       0.038783    0.023456    0.025093
C      -1.394161   -0.447176    0.237667
C      -1.542681   -1.965675    0.150413
N      -1.306986   -2.512888   -1.189188
C      -0.059630   -2.735411   -1.729872
O       0.190536   -3.635850   -2.489086
O       0.909719   -1.855185   -1.341636
C       0.614844   -0.453578   -1.312484
H       0.920646    1.764834    0.041899
H       0.675607   -0.380619    0.829069
H      -1.731924   -0.110109    1.223264
H      -2.036290    0.031235   -0.510753
H      -0.885005   -2.448122    0.887087
H      -2.567751   -2.236093    0.415810
H      -1.948238   -3.236171   -1.479192
H      -0.060938   -0.184430   -2.131855
H       1.577133    0.038492   -1.488518
