23

C      -0.236124    1.662460    0.233016
C      -0.186415    0.139802    0.400387
C      -1.420540   -0.572283   -0.158556
C      -1.614280   -0.417280   -1.695901
C      -2.213678   -1.737842   -2.117094
C      -2.132297   -2.648292   -1.147600
C      -1.495272   -2.098922    0.078134
C      -0.421844   -2.904292    0.790648
C      -1.762050   -2.688554    1.441602
H       0.651285    2.136523    0.663765
H      -0.285532    1.949354   -0.822378
H      -1.115375    2.085694    0.731861
H       0.712605   -0.255774   -0.089913
H      -0.081595   -0.094324    1.468192
H      -2.306510   -0.137459    0.325212
H      -2.246607    0.440938   -1.949409
H      -0.653159   -0.249578   -2.206183
H      -2.616162   -1.911447   -3.108709
H      -2.456683   -3.681603   -1.216922
H      -0.190013   -3.889833    0.400248
H       0.434103   -2.377573    1.197136
H      -1.810473   -2.002189    2.282245
H      -2.446317   -3.527793    1.515842
