21

C      -0.068009    1.611048   -0.060645
C       1.463589    1.517301    0.013699
C       1.348360    0.199647    0.844623
C       2.472690   -0.461817    0.021068
C       2.234332   -1.910303   -0.413324
C       1.068950   -1.780573   -1.437811
C       0.652686   -0.302886   -1.360677
C       0.008074    0.064154   -0.005653
C       1.958085    0.505317   -1.090449
H      -0.484145    2.043093    0.854904
H      -0.541706    2.071495   -0.934888
H       2.116787    2.347150    0.281580
H       1.276878    0.165093    1.931794
H       3.466901   -0.237982    0.414516
H       3.126245   -2.346024   -0.875005
H       1.974027   -2.546794    0.439095
H       1.413670   -2.023912   -2.448734
H       0.231078   -2.450437   -1.218872
H       0.058983    0.027440   -2.217143
H      -0.834575   -0.541584    0.330983
H       2.570913    0.806275   -1.940266
