22

C      -0.362514    1.437825   -0.092797
C      -0.188228   -0.077235    0.044541
C       0.782973   -0.512695    1.169832
C       0.251969   -0.191762    2.573888
C       1.275728   -0.443321    3.683020
O       0.776685   -0.109781    4.968918
C       1.006503   -2.024264    1.032282
N       2.114088   -2.387410    0.322674
O       0.229834   -2.844782    1.485958
H       0.598417    1.934004   -0.270655
H      -1.018016    1.673166   -0.937031
H      -0.806745    1.884931    0.800972
H      -1.157505   -0.556980    0.223221
H       0.180660   -0.479951   -0.906978
H       1.738829    0.008805    1.014540
H      -0.066289    0.853255    2.632649
H      -0.628834   -0.820976    2.748810
H       1.619945   -1.488113    3.649139
H       2.155216    0.194922    3.535555
H       0.047572   -0.708623    5.159833
H       2.774660   -1.717010   -0.027600
H       2.285210   -3.367595    0.167796
