17

C      -0.177782    1.145534    0.365736
C       1.113655    0.460118    0.068138
N      -0.107825    0.051792   -0.605425
C      -0.658157   -1.175768   -0.298722
N      -0.035576   -2.260629   -0.029063
C      -1.057289   -3.261474    0.163010
C      -2.007087   -3.031549    1.324401
C      -2.376320   -2.543396   -0.047203
O      -2.021610   -1.206029   -0.365764
H      -0.650434    0.937528    1.321811
H      -0.396966    2.121273   -0.055697
H       1.849244    0.940903   -0.568737
H       1.511811   -0.222659    0.812378
H      -0.832721   -4.266583   -0.173073
H      -2.563291   -3.889859    1.686066
H      -1.722995   -2.309877    2.083664
H      -3.247707   -2.887936   -0.588263
