18

C      -0.069347    1.517110    0.014427
C      -0.009278    0.021313    0.005314
C       0.669662   -0.834039   -1.101851
C       2.042298   -1.232371   -0.551864
O       1.897883   -1.187318    0.881368
C       0.551830   -0.847760    1.154527
C      -0.514725   -1.851109    0.719805
C      -0.444951   -1.826358   -0.772057
N      -1.307415   -0.832446   -0.057259
H       0.938755    1.938800    0.097132
H      -0.526926    1.898797   -0.904029
H      -0.661087    1.877774    0.861990
H       0.655586   -0.429759   -2.113972
H       2.336681   -2.242552   -0.863490
H       2.836805   -0.535856   -0.849627
H       0.471483   -0.467757    2.173011
H      -0.997463   -2.640282    1.283306
H      -0.869775   -2.604939   -1.394603
