22

C       1.797990    1.832328    1.223858
C       1.012409    0.590693    0.794806
C       1.387326   -0.653974    1.612964
C       0.606258   -1.896934    1.225424
C       0.216640   -2.861556    2.306486
N      -0.803981   -2.045285    1.651665
C       0.928435   -2.468080   -0.138357
C      -0.093299   -3.374456   -0.794566
O       1.977987   -2.188721   -0.678179
H       2.875572    1.677034    1.102928
H       1.518401    2.705659    0.626769
H       1.615482    2.076772    2.276688
H      -0.064144    0.783956    0.892456
H       1.197569    0.386497   -0.264960
H       2.454243   -0.862395    1.482283
H       1.226344   -0.454324    2.680860
H       0.158624   -3.927256    2.103994
H       0.534016   -2.611200    3.315519
H      -1.059130   -1.258642    2.244475
H      -1.004214   -2.804828   -1.002765
H       0.325769   -3.769290   -1.720567
H      -0.393689   -4.196226   -0.138089
