23

C       0.167542    1.520406    0.135905
C       0.023154   -0.004977    0.017747
C       0.520060   -0.663528    1.324261
C      -1.449735   -0.391673   -0.108725
O      -2.378044    0.374322   -0.141737
C       0.724908   -0.542258   -1.254945
C       0.278265    0.127390   -2.549475
C       2.172698   -0.973923   -1.213143
C       1.086791   -2.009191   -1.375059
H       1.224451    1.804221    0.121438
H      -0.347444    2.040693   -0.673146
H      -0.270950    1.873833    1.072995
H      -0.050922   -0.275159    2.173277
H       0.405316   -1.750969    1.322452
H       1.572467   -0.428978    1.504728
H      -1.615557   -1.492898   -0.169933
H       0.581385    1.177827   -2.589146
H       0.724907   -0.375336   -3.412289
H      -0.809923    0.091625   -2.672290
H       2.787855   -0.731149   -2.073261
H       2.709277   -0.951201   -0.272296
H       0.905110   -2.679815   -0.543635
H       0.958009   -2.476167   -2.345641
