16

C       0.047727    1.348726   -0.083363
O      -0.022971   -0.064020   -0.074871
C      -1.241037   -0.631624    0.027966
C      -2.400216    0.056518    0.123608
O      -3.629087   -0.538006    0.227397
C      -3.670779   -1.883891    0.233322
C      -2.582182   -2.662843    0.143747
C      -1.238418   -2.106470    0.030416
N      -0.130635   -2.751790   -0.060998
H       1.105217    1.599553   -0.172205
H      -0.500201    1.772978   -0.935675
H      -0.351245    1.776232    0.846535
H      -2.490657    1.131275    0.129224
H      -4.687213   -2.247182    0.318941
H      -2.704862   -3.740156    0.155959
H      -0.316584   -3.757370   -0.043627
