19

O       0.123372    1.455868    0.129771
C       0.047763    0.039936    0.177484
C      -1.333760   -0.494074   -0.220107
C      -1.392017   -1.994237   -0.217107
C      -0.760203   -2.937374   -1.262081
C      -1.952308   -3.928388   -1.048052
C      -2.528897   -2.959127   -0.007447
N      -1.565841   -2.692037    1.057814
H      -0.488368    1.802394    0.787216
H       0.806824   -0.317974   -0.527063
H       0.316725   -0.347270    1.171995
H      -2.083074   -0.113505    0.485383
H      -1.589556   -0.105580   -1.213295
H      -0.749765   -2.516871   -2.270974
H       0.245843   -3.302188   -1.028094
H      -2.573490   -4.027277   -1.941439
H      -1.712148   -4.931267   -0.678360
H      -3.577677   -2.775166    0.199580
H      -0.907932   -3.459104    1.189479
