23

C       0.045035    1.554860   -0.077392
C       0.002522    0.038468    0.128603
C      -1.360820   -0.576416   -0.211135
C      -1.407827   -2.085140   -0.001412
C      -1.457801   -2.607216    1.455299
O      -2.717931   -3.276335    1.224267
C      -2.760928   -2.791203   -0.118496
C      -4.039658   -2.335097   -0.742784
C      -3.343997   -3.603687   -1.224226
H       1.029005    1.964571    0.170850
H      -0.172957    1.818824   -1.118298
H      -0.695184    2.060629    0.552395
H       0.777013   -0.438568   -0.486639
H       0.257783   -0.195865    1.170652
H      -2.142654   -0.102512    0.397380
H      -1.608678   -0.348181   -1.257147
H      -0.628061   -2.573012   -0.595848
H      -0.672142   -3.311774    1.749892
H      -1.548470   -1.827225    2.222791
H      -4.942047   -2.455767   -0.152819
H      -4.030117   -1.460038   -1.384694
H      -2.853850   -3.592085   -2.192996
H      -3.794228   -4.552879   -0.953608
