20

O       0.050019    1.470028   -0.151337
C       0.020964    0.054613   -0.235709
C      -1.357678   -0.527091    0.104426
C      -1.396186   -2.014047    0.028086
C      -1.358610   -3.048586   -1.063459
C      -0.156158   -3.681778   -0.390736
N      -0.545194   -2.989144    0.901525
C      -1.845613   -3.694495    1.235180
C      -2.473837   -3.060065    0.008406
H      -0.060238    1.711207    0.773863
H       0.279031   -0.188010   -1.271960
H       0.781980   -0.407712    0.410051
H      -1.641683   -0.205314    1.117179
H      -2.104362   -0.107419   -0.580460
H      -1.593396   -2.925072   -2.113830
H      -0.084743   -4.773017   -0.315362
H       0.794451   -3.276961   -0.748069
H      -1.765067   -4.785281    1.309243
H      -2.245670   -3.293641    2.170368
H      -3.515203   -2.939564   -0.265407
