19

C      -0.451201    1.397484    0.015812
C       0.107613   -0.012861    0.032195
O       0.549603   -0.530955    1.037790
C       0.080245   -0.706955   -1.236328
C       0.063236   -1.299039   -2.291600
C       0.039585   -1.993235   -3.544738
C      -0.542937   -1.221808   -4.719932
C       1.184280   -2.969241   -3.811926
C      -0.175318   -3.504888   -3.489602
H       0.104929    2.015424   -0.697387
H      -1.494742    1.385849   -0.316903
H      -0.382873    1.828096    1.015945
H       0.026545   -0.306638   -4.908794
H      -0.517813   -1.832002   -5.627730
H      -1.582786   -0.940578   -4.527220
H       1.534881   -3.025747   -4.836768
H       1.959246   -3.048378   -3.059545
H      -0.333829   -3.951763   -2.515906
H      -0.767902   -3.933016   -4.290830
