15

O      -0.566967    1.288797    0.270972
C      -0.255127   -0.047093    0.091540
C      -1.371265   -1.040064   -0.133221
O      -2.681209   -0.560788   -0.238694
C      -3.194233    0.050744    0.865494
O      -4.299461    0.494736    0.876797
C      -0.432186   -0.689369   -1.284841
C      -0.888119    0.166330   -2.336407
C      -1.241868    0.954954   -3.173908
H      -0.771026    1.677241   -0.592251
H       0.596468   -0.364929    0.686175
H      -1.291361   -2.041418    0.280962
H      -2.488908    0.065331    1.712796
H       0.281157   -1.456664   -1.568521
H      -1.579422    1.612154   -3.937401
