19

C       0.220694    1.502218   -0.179669
C       0.050395    0.017499    0.066660
O       0.800614   -0.816731   -0.853593
C       1.368309   -1.592357    0.216489
C       2.782701   -1.099246    0.600282
C       2.113243   -0.132929    1.599693
O       2.524601    0.680439    2.375665
C       0.700895   -0.676982    1.300396
C      -0.170830   -1.076948    2.468657
H       1.268594    1.806109   -0.112921
H      -0.150788    1.758783   -1.176746
H      -0.352872    2.076466    0.555597
H      -1.015620   -0.250048    0.015409
H       1.193449   -2.665058    0.112334
H       3.385453   -1.849251    1.125944
H       3.376351   -0.657685   -0.203370
H      -0.457696   -0.191865    3.046847
H      -1.084761   -1.574704    2.128783
H       0.353790   -1.755035    3.149376
