19

O       0.424265    1.276779    0.379341
C       0.179901   -0.075281    0.023433
C      -1.268972   -0.494868    0.294265
C      -1.516439   -1.961799   -0.041601
C      -2.948100   -2.575236    0.085074
O      -3.901439   -1.536355    0.008603
C      -2.749970   -3.328740   -1.268384
C      -1.536039   -2.414779   -1.513120
O      -0.916320   -2.095983   -2.486289
H      -0.074775    1.832588   -0.227505
H       0.435376   -0.273181   -1.026832
H       0.862413   -0.670131    0.642035
H      -1.504349   -0.308052    1.348109
H      -1.950477    0.128020   -0.295473
H      -0.807433   -2.605524    0.497749
H      -3.112129   -3.208996    0.964152
H      -4.774757   -1.932760   -0.070859
H      -2.451322   -4.375496   -1.148705
H      -3.564942   -3.265363   -1.993703
