10

O      -0.010098    1.260933    0.008954
C       1.252336    1.751357   -0.000498
C       2.115623    0.701699   -0.014395
N       3.436532    0.246556   -0.029476
C       3.296731   -1.032694   -0.035003
O       2.003150   -1.544397   -0.025378
C       1.254273   -0.413676   -0.012139
N      -0.021122   -0.152731    0.001466
H       1.333963    2.825690    0.004487
H       4.076073   -1.779899   -0.046473
