12

C      -0.014874    1.443112   -0.061919
N       0.029120   -0.000106    0.003096
N       0.059598   -0.771815   -1.129914
C       0.093215   -1.992478   -0.634496
N       0.086884   -2.079976    0.728976
C       0.046329   -0.811185    1.075621
O       0.023234   -0.314366    2.318789
H       0.867034    1.824025   -0.583376
H      -0.911828    1.769274   -0.594722
H      -0.033377    1.833665    0.956046
H       0.123593   -2.861698   -1.274480
H       0.041608   -1.070890    2.918445
