22

C       0.196154    1.587847   -0.089397
C       0.210665    0.057523   -0.064808
C       0.462675   -0.516247    1.336945
C       0.530640   -2.025740    1.356064
C      -0.736926   -2.846264    1.073943
C      -0.530774   -4.123208    1.861585
C       0.596472   -4.085609    2.578289
C       1.350542   -2.823004    2.325323
N       1.812866   -2.607865    0.929636
H       1.152233    1.996799    0.255905
H       0.016338    1.969982   -1.099217
H      -0.588100    1.989081    0.562711
H      -0.743785   -0.322638   -0.451974
H       0.989857   -0.318683   -0.738559
H       1.409624   -0.120664    1.721865
H      -0.326709   -0.179884    2.023394
H      -1.633567   -2.308945    1.412842
H      -0.882485   -3.034588    0.002068
H      -1.219207   -4.959185    1.809692
H       0.958457   -4.868448    3.234664
H       1.979479   -2.378864    3.090648
H       1.665638   -3.463530    0.396602
