20

O       0.004056    1.497467   -0.048096
C      -0.035201    0.065934    0.008290
C       0.744331   -0.442847    1.194184
C       0.177989   -1.055637    2.235692
C      -1.298352   -1.333704    2.342753
C      -2.112177   -0.462860    1.374526
C      -1.461145   -0.474926    0.007151
C      -2.248386   -0.352349   -1.237391
N      -1.760090   -1.676354   -0.798545
H      -0.143514    1.821473    0.846888
H       0.454375   -0.250227   -0.923263
H       1.814421   -0.252610    1.178491
H       0.803676   -1.392921    3.059439
H      -1.482025   -2.393859    2.119244
H      -1.632716   -1.181381    3.375729
H      -3.142381   -0.821468    1.303415
H      -2.149788    0.569926    1.746542
H      -3.326743   -0.225283   -1.188953
H      -1.775039    0.125619   -2.091313
H      -0.946948   -1.942180   -1.350319
