18

O       0.013616    1.153440   -0.195702
C      -0.083164   -0.258611   -0.289773
C      -1.447137   -0.647210    0.263391
C      -1.700255   -2.140646    0.239784
O      -0.849133   -2.953121   -0.033263
C      -3.136266   -2.572867    0.560089
O      -3.252759   -3.936064    0.885195
C      -3.110342   -4.822914   -0.128989
N      -3.157836   -6.057045    0.117936
H       0.882757    1.415749   -0.512548
H       0.006150   -0.605682   -1.329758
H       0.702642   -0.764842    0.286984
H      -1.538649   -0.296712    1.300683
H      -2.242337   -0.128931   -0.288826
H      -3.513132   -2.013051    1.421119
H      -3.769211   -2.299594   -0.300233
H      -2.984018   -4.351043   -1.110939
H      -3.055860   -6.587895   -0.744276
