20

C      -0.057764    1.525450    0.056260
C      -0.040433    0.004759    0.058392
O      -0.099563   -0.626414    1.098665
N       0.046914   -0.635012   -1.165883
C       0.067390   -2.103407   -1.186719
C       0.996457   -2.617183   -2.288203
C       0.572721   -2.076113   -3.660980
C       0.268866   -0.606124   -3.567867
C       0.067188    0.018657   -2.402848
H       0.819891    1.946809   -0.442689
H      -0.948435    1.917340   -0.445824
H      -0.070577    1.847642    1.096674
H       0.377126   -2.434823   -0.196615
H      -0.954510   -2.470034   -1.355206
H       2.020739   -2.295440   -2.067449
H       0.992179   -3.711388   -2.278575
H       1.365781   -2.251766   -4.397959
H      -0.304008   -2.625919   -4.033580
H       0.227055   -0.018410   -4.478084
H      -0.115087    1.083608   -2.365467
