20

O      -0.049630    1.443330    0.090442
C      -0.005868    0.025495   -0.033162
C       0.704528   -0.555569    1.205438
O       0.878573   -1.957634    1.221465
C      -0.333222   -2.691546    1.325081
C      -0.984389   -2.895393   -0.026094
C      -2.454962   -2.735077   -0.212452
N      -1.529069   -1.762155   -0.777645
C      -1.460330   -0.434087   -0.169965
H       0.854625    1.772095    0.114861
H       0.534842   -0.280911   -0.941091
H       1.715983   -0.135113    1.263439
H       0.151874   -0.219323    2.099047
H      -0.065215   -3.665838    1.747616
H      -1.017077   -2.201000    2.033196
H      -0.456298   -3.605959   -0.660077
H      -2.993523   -3.354353   -0.924857
H      -3.038380   -2.437208    0.658770
H      -1.956772   -0.372554    0.812410
H      -1.977933    0.267929   -0.831290
