20

C      -0.047951    1.495477   -0.215135
C       0.067283    0.009041    0.045790
C       1.413933   -0.692847    0.005396
O       2.582084    0.057815   -0.144067
C       0.689387   -0.553374    1.319692
C       1.241053    0.371913    2.386683
C       0.023507   -1.816768    1.867268
C       0.943039   -2.672150    2.621866
N       1.676566   -3.339191    3.215521
H       0.882411    2.018173    0.015228
H      -0.280455    1.680708   -1.269743
H      -0.848127    1.947063    0.380499
H      -0.763938   -0.571813   -0.349237
H       1.458352   -1.687620   -0.439759
H       2.660594    0.310161   -1.070158
H       1.845338    1.166972    1.951279
H       0.430721    0.825403    2.968883
H       1.881786   -0.184783    3.078287
H      -0.812772   -1.546358    2.524461
H      -0.401316   -2.412173    1.051638
