17

C      -0.231239    1.395079    0.121070
N       0.012379   -0.027554    0.004860
C       0.013613   -0.741494   -1.163015
C       0.206412   -2.074080   -0.868962
C       0.312354   -2.153721    0.545157
O       0.575171   -3.266082    1.310387
C      -0.159027   -4.377869    1.066108
N       0.139206   -5.459205    1.642047
C       0.186509   -0.886062    1.064387
H       0.449658    1.834464    0.855081
H      -0.050173    1.870142   -0.845106
H      -1.261890    1.606041    0.428168
H      -0.115069   -0.242567   -2.110405
H       0.299354   -2.882321   -1.576678
H      -0.982221   -4.200351    0.363660
H      -0.519760   -6.185942    1.370409
H       0.217620   -0.537470    2.082893
