15

N       0.252056    1.377870   -0.028452
C       0.031653    0.000890   -0.004056
C      -1.102735   -0.751138   -0.065167
O      -2.386442   -0.277318   -0.060022
C      -0.671888   -2.113668   -0.128712
O      -1.531741   -3.164052   -0.203863
C       0.685615   -2.115802   -0.085262
N       1.569681   -3.191407   -0.087492
O       1.132116   -0.801970   -0.017956
H       0.737967    1.712602    0.798448
H      -0.630140    1.868770   -0.111013
H      -2.973777   -1.029151   -0.190452
H      -0.993961   -3.965212   -0.245034
H       2.098623   -3.283528    0.775227
H       2.229469   -3.166670   -0.859402
