16

C       0.012108    1.370597   -0.227279
C       1.503462    1.512534    0.129502
C       1.337854    0.088544    0.734923
O      -0.005625   -0.005572    0.220864
C       2.202538   -1.009864    0.226744
C       2.113337   -1.820780   -0.881996
N       3.183936   -2.663420   -0.903145
N       3.938914   -2.423733    0.128233
N       3.348840   -1.426757    0.821278
H      -0.667071    1.996270    0.364206
H      -0.253002    1.455463   -1.285971
H       2.174048    1.544609   -0.729698
H       1.767276    2.303182    0.832772
H       1.341704    0.093088    1.835688
H       1.342653   -1.851239   -1.633434
H       3.780347   -1.098243    1.670715
