9

O      -0.297612    0.291069   -0.654145
C       0.223595    0.859261    0.269693
C       1.440065    1.716042    0.145054
C       1.503575    2.969652    0.928096
O       2.224906    1.822716    1.337346
H      -0.163351    0.795480    1.311703
H       1.990255    1.639129   -0.790494
H       2.095313    3.792957    0.532217
H       0.665753    3.251733    1.564641
