17

N      -0.002597   -1.153792    0.077440
C       0.025882    0.000589    0.105063
C       0.065636    1.462558    0.117071
C       1.470266    2.005175   -0.043804
C       2.518937    1.678602   -1.111521
C       3.207796    2.598563   -0.101495
C       1.948357    3.483239    0.141147
C       2.092895    3.239346    1.638254
N       2.525237    1.879193    1.096114
H      -0.566294    1.835128   -0.698188
H      -0.376176    1.823627    1.052973
H       2.866791    0.643221   -1.139110
H       2.346458    2.081635   -2.112560
H       4.251781    2.903715   -0.028275
H       1.625609    4.367824   -0.418675
H       2.893612    3.764435    2.167916
H       1.191343    3.205023    2.258584
