11

O       0.096011   -0.013722   -0.475881
C       0.012783    1.071783    0.007635
O      -1.079206    1.414029    0.759318
N      -1.498315    2.760261    0.919032
C      -0.660295    3.586289    1.433622
N       0.622981    3.416482    1.931674
C       1.480601    2.721771    1.298179
C       1.202948    2.059180   -0.027600
O       1.909692    2.178037   -0.990096
H      -1.075712    4.581760    1.572106
H       2.480262    2.595857    1.716431
