17

C       0.034213    1.490432    0.069709
C      -0.005477   -0.006764    0.048323
C       0.016939   -0.805172   -1.068363
N      -0.037470   -2.122627   -0.667114
C      -0.090717   -2.187317    0.691398
C      -0.068002   -0.891649    1.179281
C      -0.128333   -0.469313    2.590778
N       0.099285   -1.466457    3.524399
O      -0.394816    0.670306    2.935331
H       0.892372    1.861325    0.639080
H       0.097873    1.889449   -0.947321
H      -0.853312    1.902417    0.556654
H       0.067982   -0.545247   -2.113814
H      -0.063016   -2.914923   -1.284815
H      -0.184277   -3.133057    1.201026
H       0.694936   -2.237440    3.268537
H       0.206082   -1.129246    4.469613
