14

C       0.011002    1.546846    0.009850
C      -0.020893    0.007468    0.005472
C      -1.372641   -0.536933    0.010699
C      -2.502186   -0.959488    0.014993
C      -3.888272   -1.402544    0.024704
N      -4.032520   -2.760799   -0.014112
O      -4.829827   -0.633349    0.054494
H       1.045101    1.903070    0.005752
H      -0.497488    1.947763   -0.870557
H      -0.488784    1.942613    0.897543
H       0.513981   -0.373844   -0.873903
H       0.522462   -0.378828    0.877473
H      -3.238924   -3.374992    0.034120
H      -4.962354   -3.142072    0.046204
