15

C       0.287535    1.471747   -0.132500
O      -0.183056    0.226090   -0.671300
C       0.756939   -0.703044   -0.889747
O       1.933846   -0.521929   -0.663914
C       0.149190   -1.983242   -1.421078
C       0.922700   -2.695571   -2.547487
N       2.273120   -2.687943   -2.414614
O       0.323781   -3.266658   -3.435907
H       1.007362    1.934215   -0.811664
H      -0.597500    2.098096   -0.026003
H       0.766362    1.313792    0.836797
H       0.096367   -2.682165   -0.576022
H      -0.867332   -1.812424   -1.770897
H       2.704413   -2.054798   -1.755526
H       2.814829   -3.088142   -3.163274
