15

O      -0.150976    0.702128   -1.231467
C      -0.097655    1.365761   -0.239421
O      -1.204979    1.650030    0.480705
C      -1.063838    2.486380    1.643655
C      -0.825785    3.947304    1.256277
C       0.229977    4.062720    0.154880
O       1.378066    3.242195    0.438579
C       1.256827    1.903910    0.297683
O       2.162463    1.165115    0.545495
H      -1.995855    2.366188    2.196783
H      -0.250993    2.109254    2.273786
H      -1.752401    4.405970    0.895493
H      -0.510484    4.494538    2.150859
H      -0.187714    3.789633   -0.820294
H       0.617365    5.079070    0.077307
