21

C      -0.174134    1.357600    0.065577
N       0.002913   -0.078659   -0.066107
C      -0.050865   -0.913982    1.121218
C      -1.426518   -0.955604    1.768564
C      -1.609025   -1.568793    3.115359
N      -1.846411   -0.146337    2.917959
C      -0.925096    0.774256    3.565664
C       0.242154   -0.617511   -1.297553
O       0.313233   -0.000706   -2.339185
H       0.588325    1.783690    0.728811
H      -0.073935    1.793388   -0.928536
H      -1.162953    1.598543    0.470610
H       0.217311   -1.931324    0.814461
H       0.711834   -0.592248    1.841734
H      -2.223582   -1.088441    1.037553
H      -2.477443   -2.184614    3.334152
H      -0.702659   -1.859137    3.648963
H       0.112664    0.412443    3.645030
H      -0.918988    1.728443    3.030354
H      -1.286825    0.960408    4.581718
H       0.369719   -1.716913   -1.242255
