17

C       0.092916    1.447366   -0.163902
C       0.155588   -0.030087    0.158749
O       1.167242   -0.593915    0.499335
C      -1.168100   -0.800978    0.048417
C      -1.945801   -0.728464   -1.288898
O      -1.853647   -2.155894   -1.448289
C      -1.049305   -2.307764   -0.260628
C      -1.991371   -0.474755    1.281682
O      -2.868443    0.348933    1.310937
H       0.981362    1.947463    0.223220
H       0.060974    1.581345   -1.251458
H      -0.816666    1.900694    0.241635
H      -2.977374   -0.372308   -1.202243
H      -1.440043   -0.191587   -2.100564
H      -0.027875   -2.639967   -0.472772
H      -1.510814   -2.987391    0.466701
H      -1.706100   -1.057885    2.184438
