21

C      -0.135022    1.533984    0.073467
C      -0.015653    0.004739   -0.019614
C       0.584445   -0.391576   -1.377500
C       0.826188   -0.542614    1.139120
C       0.282236   -0.315466    2.579347
N      -0.149355   -1.728629    2.632125
C       0.707291   -2.075610    1.482759
C       0.088825   -3.004576    0.533032
N      -0.387806   -3.755371   -0.205749
H       0.852814    2.007483    0.019500
H      -0.731828    1.921702   -0.757892
H      -0.612279    1.859394    1.002247
H      -1.022977   -0.425691    0.058484
H       1.583888    0.044389   -1.498203
H       0.668001   -1.474269   -1.494326
H      -0.039071   -0.018797   -2.196148
H       1.865878   -0.231273    1.005607
H       1.075128   -0.049034    3.291045
H      -0.541557    0.395527    2.694036
H       0.045709   -2.235506    3.487782
H       1.691166   -2.486743    1.750816
