19

C      -0.143435    1.531342    0.011641
C       0.102736    0.034057    0.025852
N       1.234644   -0.453583   -0.841723
C       1.783569   -1.238651    0.278781
C       2.262514   -2.644859    0.107624
C       2.240294   -0.284144    1.325251
C       0.753553   -0.620739    1.262120
C       0.047120   -1.192578    2.353385
N      -0.539251   -1.673172    3.230186
H       0.763172    2.086213    0.266911
H      -0.465355    1.853730   -0.983733
H      -0.929139    1.796068    0.726853
H      -0.822888   -0.504136   -0.204983
H       0.882651   -1.061151   -1.575115
H       3.154765   -2.666308   -0.528955
H       2.524897   -3.087275    1.072136
H       1.496275   -3.273671   -0.358860
H       2.748200   -0.721730    2.178056
H       2.575602    0.709292    1.043460
