13

N       0.059245    1.363171    0.150106
C      -0.047881   -0.012284    0.054827
C      -1.191902   -0.787869    0.033471
N      -0.696020   -2.097705    0.004446
C      -0.952191   -3.435421   -0.034622
N       0.139435   -4.146404   -0.052854
O       1.209083   -3.209277   -0.026233
C       0.667131   -1.985916    0.008102
N       1.121414   -0.768470    0.035563
H       0.960068    1.699216   -0.160230
H      -0.703721    1.882821   -0.257922
H      -2.240208   -0.555094    0.052363
H      -1.933222   -3.882698   -0.047773
