17

N      -0.015893    1.472872    0.086024
C      -0.036276    0.036207   -0.025947
C       1.049285   -0.587500    0.693197
N       1.930971   -1.096763    1.242434
C      -1.343038   -0.729565   -0.017210
C      -2.611106    0.062733   -0.341457
C      -2.400745    0.501480   -1.776521
C      -1.259784    0.021707   -2.285648
C      -0.498155   -0.765218   -1.282668
H       0.899580    1.822346   -0.183909
H      -0.683952    1.872589   -0.567485
H      -1.413866   -1.587818    0.639124
H      -3.505322   -0.563952   -0.236593
H      -2.748699    0.913106    0.339294
H      -3.103873    1.139344   -2.299787
H      -0.896726    0.195280   -3.291732
H       0.090614   -1.626801   -1.574330
