18

C       0.110325    1.348102   -0.117076
O       0.257155   -0.050871   -0.100626
C       0.445278   -0.561747    1.203846
C       0.539799   -2.060569    1.116483
C       1.844723   -2.719991    0.786463
C       1.274852   -2.853485    2.191708
C       1.909078   -2.204027    3.302551
C       2.436521   -1.676739    4.247026
H       1.002112    1.859099    0.280377
H      -0.034688    1.650523   -1.157120
H      -0.760457    1.676362    0.473330
H       1.359176   -0.147546    1.658423
H      -0.397053   -0.268060    1.853853
H      -0.356291   -2.537244    0.730684
H       1.843380   -3.604405    0.159876
H       2.713061   -2.081306    0.671298
H       0.834838   -3.816843    2.432536
H       2.905155   -1.211128    5.078022
