18

C      -0.255306    1.772197   -0.045886
C      -0.082071    0.373636   -0.621476
O       0.846622    0.114980   -1.356676
C      -1.110597   -0.681245   -0.316499
C      -1.608088   -0.834816    1.088826
N      -2.487537   -0.288242    0.062781
C      -1.013619   -1.899593   -1.192698
C      -0.145008   -3.025313   -0.844413
O      -1.564643   -3.108162   -0.676906
H       0.712741    2.274380   -0.064189
H      -0.941997    2.342484   -0.683468
H      -0.657241    1.785724    0.970741
H      -1.857595   -1.842123    1.405385
H      -1.207716   -0.181480    1.858889
H      -2.556889    0.722665    0.151799
H      -1.227069   -1.719841   -2.245642
H       0.271955   -3.647496   -1.633538
H       0.431354   -2.990281    0.078534
