16

C       0.177472    1.568563   -0.299896
C       0.115745    0.126731   -0.112346
C       0.067496   -1.067764    0.036083
C      -0.034944   -2.494497    0.231713
C       0.032616   -3.107575    1.676928
C      -1.179629   -4.029793    1.360125
C      -1.429726   -3.186219    0.100601
O      -2.355885   -3.035446   -0.634572
H       0.958596    1.845045   -1.016649
H      -0.773643    1.959266   -0.678191
H       0.395117    2.083155    0.642639
H       0.657947   -3.032477   -0.430307
H       0.969641   -3.601567    1.933542
H      -0.200968   -2.359089    2.435124
H      -0.896633   -5.056337    1.104623
H      -2.002790   -4.065743    2.077085
