16

O       0.120732   -0.081512    0.001019
C      -0.004941    1.111438    0.009177
C      -1.190037    2.115837    0.031702
C      -0.090674    3.204945    0.021395
N       0.898193    2.152193    0.002172
C       0.030747    4.461625   -0.876648
C      -0.969408    5.196667    0.043692
C       0.056574    4.452808    0.927807
O       1.134018    4.915222    0.012202
H      -1.828694    2.076885   -0.852594
H      -1.802795    2.067582    0.933691
H       1.906375    2.190959   -0.012831
H       0.185041    4.541311   -1.953031
H      -0.859200    6.280536    0.047406
H      -2.010740    4.866335    0.056986
H       0.241639    4.521997    2.000055
