13

O      -0.021249    0.079030    0.018759
C       0.010408    1.261035    0.069835
N      -1.075829    2.230218    0.089935
C      -0.489244    3.428762    0.805693
C       0.918358    3.090700    1.304218
C       1.093584    2.354149   -0.066804
C       2.374913    2.135011   -0.669257
N       3.404749    1.960886   -1.165194
C      -0.135425    3.206328   -0.598417
H      -1.215409    4.102887    1.238279
H       1.540368    3.985734    1.360678
H       1.037033    2.481716    2.204320
H      -0.362358    3.653533   -1.554116
