16

C      -0.075646    1.506222    0.003730
N       1.233156    0.830610    0.001391
C      -0.009099    0.022394    0.006663
C      -0.303574   -0.854436    1.232294
C      -0.653300   -2.258051    0.662057
C      -0.730508   -2.034250   -0.830555
C      -0.387108   -0.793473   -1.175716
H      -0.313185    2.033826    0.924698
H      -0.413791    2.007594   -0.900649
H       1.631561    0.847637   -0.935498
H       0.559488   -0.872280    1.900954
H      -1.149121   -0.448542    1.795703
H       0.108609   -3.009679    0.906742
H      -1.596977   -2.642635    1.066494
H      -1.024189   -2.816094   -1.522182
H      -0.353024   -0.398545   -2.186160
