19

C      -0.119850    1.625680   -0.163739
C       0.034533    0.136152    0.065484
O       0.957636   -0.518530   -0.913104
C       1.811179   -0.816942    0.192840
C       2.530718   -1.869994    1.096390
C       2.198076   -0.569847    1.985593
C       2.727434    0.277748    0.815211
O       4.085728    0.211404    0.461778
C       0.784711   -0.590522    1.266188
H       0.828122    2.164154   -0.156244
H      -0.592199    1.796062   -1.136842
H      -0.770801    2.049790    0.608235
H      -0.946192   -0.340710   -0.027678
H       1.955094   -2.765578    1.335469
H       3.588391   -2.072768    0.932919
H       2.426043   -0.460728    3.047340
H       2.354470    1.303109    0.777576
H       4.572024    0.828034    1.017440
H       0.207924   -1.474736    1.540355
