16

C      -0.122522    1.482034   -0.095634
C      -0.028523   -0.038116    0.033796
C      -1.386012   -0.688250    0.295171
C       0.891771   -0.724749   -1.033171
O       1.835008   -1.112623    0.011101
C       1.075580   -0.506119    0.993925
O       1.319434   -0.434729    2.151346
C       0.365201   -1.874082   -1.758227
N      -0.075171   -2.763486   -2.349545
H       0.854717    1.936464   -0.284761
H      -0.795978    1.755783   -0.913854
H      -0.518668    1.908922    0.829809
H      -2.085786   -0.453676   -0.512661
H      -1.312147   -1.775481    0.376609
H      -1.798990   -0.302810    1.231295
H       1.366581   -0.032006   -1.732643
