18

C      -0.845650    0.342068   -0.780319
C       0.001578    0.455396    0.487542
N       0.351837   -0.874974    0.980875
C       0.150670   -1.167339    2.176680
C       0.360879   -2.400532    3.025596
C      -0.206414   -1.513595    4.168612
O      -0.368475   -0.403690    3.219837
C      -1.451194   -1.921106    4.785946
C      -2.474711   -2.275561    5.305740
H      -1.800866   -0.147668   -0.567108
H      -1.054487    1.333828   -1.193760
H      -0.324522   -0.250403   -1.537647
H       0.938647    0.975183    0.249758
H      -0.520813    1.057799    1.241941
H      -0.258429   -3.256046    2.755125
H       1.398464   -2.714374    3.146459
H       0.531867   -1.235214    4.926649
H      -3.382147   -2.582025    5.765347
