8

O       0.105253    1.294759   -0.136398
C       0.067030   -0.034875   -0.069910
N      -0.035668   -0.801873   -1.145960
N      -0.032668   -2.004355   -0.567214
N       0.062449   -1.999054    0.746303
N       0.128302   -0.733919    1.089568
H       0.181249    1.623332    0.768502
H      -0.098729   -2.859869   -1.097705
