18

C       0.034268    1.383008    0.016801
O       1.327036    1.904773    0.046725
C       2.014110    1.676634   -1.177761
C       1.901525    0.224137   -1.654471
C       2.890210   -0.841810   -1.169888
N       2.778518   -0.901465    0.302125
C       1.802114   -1.639100   -0.532934
C       0.745606   -0.626080   -0.982862
O       0.007902   -0.024922    0.055205
H      -0.474898    1.720049    0.921664
H      -0.502670    1.751789   -0.879491
H       1.602853    2.349052   -1.948796
H       3.055909    1.957940   -1.001072
H       1.804569    0.190244   -2.742443
H       3.782946   -1.179002   -1.682476
H       3.458733   -1.588583    0.626569
H       1.681258   -2.710109   -0.432749
H       0.065559   -1.049327   -1.733373
