19

C       0.295008    1.487780    0.242375
C      -0.220602    0.127744   -0.241465
C       0.617123   -0.448226   -1.364905
C       1.883383   -1.217167   -1.066034
C       0.664332   -1.941868   -1.562213
O      -0.086198   -2.873600   -0.772919
C      -0.374015   -3.711424   -1.919315
C       0.442708   -2.749472   -2.802325
O       0.755236   -2.674919   -3.953252
H       1.319758    1.409783    0.619902
H       0.295909    2.223349   -0.569259
H      -0.332586    1.880605    1.048128
H      -0.244385   -0.585388    0.589578
H      -1.257782    0.225695   -0.584934
H       0.618814    0.125237   -2.289872
H       2.731823   -1.139167   -1.737698
H       2.129878   -1.386495   -0.022207
H       0.036401   -4.722129   -1.816468
H      -1.444649   -3.762557   -2.147856
