15

C      -0.128149    1.380332    0.086215
N      -0.084106   -0.068992   -0.022249
C       0.559258   -0.604752   -0.994495
C       1.292602    0.025563   -2.070343
N       1.940068   -0.615500   -2.987129
O       1.949938   -1.966135   -2.956409
N       1.273594   -2.720385   -1.988292
C       0.604332   -2.071292   -1.081386
N      -0.111496   -2.755626   -0.158960
H       0.873951    1.829575    0.129621
H      -0.661518    1.837521   -0.758949
H      -0.658586    1.653138    1.000996
H       1.336699    1.104375   -2.166866
H       0.042423   -3.744339   -0.057328
H      -0.437432   -2.210238    0.624217
