18

N       0.182601    1.133825   -0.043477
C       0.016057   -0.123079   -0.090528
N      -1.231167   -0.732655    0.037592
C      -1.340874   -2.193925    0.076823
C      -1.298018   -2.757835    1.479456
C      -0.792690   -4.132862    1.703125
N      -0.018657   -2.970447    2.176065
C      -2.394557    0.015874    0.159885
O      -3.486616   -0.484181    0.305780
H       1.162254    1.369999   -0.179764
H       0.811785   -0.861511   -0.244015
H      -2.292543   -2.452217   -0.393518
H      -0.530903   -2.616882   -0.528333
H      -2.086780   -2.383073    2.126593
H      -1.222291   -4.750005    2.486281
H      -0.426946   -4.688325    0.842343
H       0.761249   -2.800786    1.544074
H      -2.201589    1.095092    0.101980
