17

C      -0.052553    1.513719    0.014161
C      -0.002986    0.025290   -0.042698
C      -0.028437   -0.816608   -1.081717
C       0.045445   -2.204101   -0.461083
O      -0.034579   -3.341629   -1.241659
C      -0.779170   -2.173848    0.868779
O       0.182057   -3.039707    1.559115
C       1.011688   -2.104512    0.795105
C       0.085494   -0.899291    1.164356
H       0.836998    1.924139    0.509021
H      -0.116671    1.949870   -0.986552
H      -0.917132    1.861733    0.593635
H      -0.103705   -0.600857   -2.139667
H       0.661216   -3.308409   -1.906440
H      -1.844881   -2.351986    1.031162
H       2.098354   -2.200009    0.868849
H       0.112408   -0.513531    2.181392
