18

C       0.076383    1.636706   -0.052919
C      -0.000732    0.106611    0.033042
C       0.802813   -0.571923   -1.098902
O       2.125998   -0.793778   -0.578321
C       2.111635   -0.805978    0.783809
O       3.078350   -1.047611    1.443707
C       0.717938   -0.455195    1.249767
C       0.468181   -0.099833    2.663748
N       0.123335   -1.444409    2.180099
H       1.117284    1.976900   -0.054008
H      -0.396252    1.997054   -0.972243
H      -0.429261    2.108545    0.794174
H      -1.047723   -0.212214    0.001898
H       0.374457   -1.538452   -1.386928
H       0.899400    0.052671   -1.989751
H       1.314247   -0.069562    3.343632
H      -0.332371    0.604058    2.875995
H      -0.878156   -1.495681    2.001279
