18

C      -0.189610    1.317446   -0.324126
C       1.169212    0.993600    0.246060
C       0.177888   -0.112167   -0.017992
C      -0.421504   -0.867584    1.138599
O      -0.894360   -0.018977    2.229420
C      -2.139107   -0.725962    2.250437
C      -2.902355   -0.535777    0.978933
C      -1.786942   -1.560212    1.043349
H      -0.888170    1.807992    0.342024
H      -0.260312    1.616797   -1.363965
H       2.039229    1.071077   -0.396391
H       1.344325    1.265774    1.281224
H       0.390571   -0.754344   -0.869602
H       0.321179   -1.569731    1.543458
H      -2.561389   -0.971621    3.217665
H      -3.896914   -0.972106    0.972945
H      -2.799439    0.378419    0.405727
H      -1.938562   -2.613068    0.848524
