18

C       0.015415    1.501039    0.005730
C       0.025132   -0.008705   -0.044773
O       0.836700   -0.420614   -1.107969
C       0.913369   -1.818043   -1.220226
C       2.168447   -2.445470   -0.709166
C       0.865279   -2.597457    0.071635
C       0.662447   -1.842145    1.336425
N       0.630623   -2.420503    2.461102
O       0.540568   -0.481661    1.209011
H       1.036494    1.868425    0.132671
H      -0.393825    1.898584   -0.925640
H      -0.595328    1.843208    0.843678
H      -0.989173   -0.421574   -0.164115
H       0.422064   -2.213801   -2.105235
H       2.552548   -3.333542   -1.197017
H       2.915698   -1.768008   -0.313442
H       0.416126   -3.582074    0.073520
H       0.468831   -1.732891    3.200152
