15

C       0.027714    1.504210    0.089474
C       0.022966   -0.012458    0.031534
O       0.702091   -0.506626    1.174486
C       0.756882   -1.901019    1.222173
C       1.503772   -2.304588    2.483078
F       0.889866   -1.867524    3.586822
F       1.569046   -3.645201    2.550556
F       2.753758   -1.831763    2.494193
H       1.052800    1.884514    0.097753
H      -0.490347    1.917246   -0.780933
H      -0.476534    1.855019    0.994002
H      -1.009080   -0.400047    0.012278
H       0.521466   -0.370607   -0.884401
H      -0.243878   -2.358996    1.262966
H       1.294077   -2.329401    0.361454
