14

C       0.084293    1.406383    0.006642
O       0.012560   -0.009376    0.002596
C      -1.226443   -0.556087    0.010861
C      -2.417515    0.087925    0.022693
O      -3.573762   -0.595440    0.029822
C      -3.608529   -2.010564    0.025448
O      -4.685342   -2.526415    0.031502
N      -2.389957   -2.674698    0.013181
C      -1.293288   -1.988520    0.006613
H       1.144296    1.660667   -0.001240
H      -0.400173    1.831305   -0.882601
H      -0.385457    1.825453    0.906496
H      -2.566732    1.159763    0.027485
H      -0.349673   -2.536094   -0.002887
