18

O      -0.380988    1.547587    0.047051
C      -0.192916    0.159928    0.020468
C      -0.468606   -0.743522    1.214414
C      -1.258172   -0.190890    2.392788
C      -2.517601    0.475393    1.780145
C      -2.738566   -0.223085    0.419595
C      -1.376042   -0.763055    0.001637
O      -1.345725   -1.868925   -0.854143
H       0.309716    1.930098    0.598570
H       0.632554   -0.174041   -0.609502
H       0.234493   -1.552590    1.381910
H      -1.536130   -1.025119    3.047128
H      -0.683425    0.512235    3.006454
H      -3.388861    0.384830    2.434638
H      -2.331092    1.537510    1.618678
H      -3.404866   -1.087840    0.516684
H      -3.178716    0.451483   -0.322800
H      -1.553053   -1.560836   -1.743449
