20

C       0.027110    1.512192    0.167607
N       0.175972    0.069812    0.160500
C      -1.064284   -0.745625    0.249055
C      -0.417149   -1.639787    1.320453
O      -1.292419   -1.962459    2.354968
C       0.574571   -2.710562    0.794846
C       1.759136   -1.680398    0.890900
O       2.457748   -1.373901   -0.277468
C       0.755044   -0.584980    1.360217
H       1.013338    1.984413    0.212515
H      -0.459876    1.836119   -0.758308
H      -0.574033    1.882347    1.017082
H      -1.906551   -0.189613    0.683868
H      -1.380053   -1.208898   -0.692224
H      -0.859674   -2.592912    2.939783
H       0.682790   -3.563125    1.474524
H       0.377682   -3.092851   -0.210267
H       2.486453   -1.960140    1.658585
H       1.846469   -0.792281   -0.763182
H       0.997469    0.072997    2.198439
