15

O      -0.829438    0.996674   -0.259537
C       0.275307    0.645410    0.056931
C       1.488019    1.569777   -0.009873
N       2.617498    0.775040   -0.546259
C       3.216231    1.576479   -1.336678
N       2.986902    1.364178   -2.776699
C       2.050833    2.585907   -2.478660
C       1.395334    2.719044   -1.034129
C       2.810657    3.090612   -1.318809
H       0.495623   -0.370234    0.445101
H       1.626031    1.967510    1.012973
H       3.730021    1.811466   -3.325603
H       1.624941    3.107488   -3.329867
H       0.604342    3.459751   -0.967777
H       3.387348    3.985514   -1.127472
