18

C      -0.118861    1.514775   -0.042245
C      -0.055648    0.015225    0.110934
N       1.284053   -0.616421   -0.079662
C       0.636672   -0.647445    1.227081
C       1.327589   -0.174918    2.488366
C       0.467540   -0.777421    3.614883
O      -0.658986   -1.431244    3.020972
C       0.272244   -1.916704    2.009700
C       1.497931   -1.624814    2.961237
H       0.766715    1.983700    0.394691
H      -0.163767    1.799499   -1.098820
H      -1.006803    1.916893    0.457150
H      -0.906908   -0.524887   -0.303381
H       1.185659   -1.514216   -0.550137
H       2.000606    0.659929    2.628101
H       0.373625   -0.369224    4.612457
H      -0.030757   -2.849770    1.536046
H       2.351072   -2.192449    3.303637
