17

N      -0.084453   -1.157983   -0.133372
C      -0.065485   -0.006984   -0.028157
C      -0.010333    1.446143    0.105410
C       1.431684    2.003128    0.008167
C       2.106739    1.715747   -1.323759
C       2.518468    2.826979   -1.936205
C       2.148038    4.035022   -1.140400
N       0.669903    4.183085   -0.992155
C       1.458559    3.532564    0.076255
H      -0.617578    1.909832   -0.677949
H      -0.453578    1.721412    1.069185
H       2.016976    1.579029    0.834448
H       2.190968    0.707567   -1.712630
H       3.020635    2.874135   -2.894637
H       2.760810    4.929727   -1.140773
H       0.462725    5.137033   -0.700703
H       1.544937    4.025616    1.038416
