14

O       0.036327    1.375550    0.148002
C       0.054154    0.011151    0.042308
C       0.056234   -0.654249   -1.184353
C       0.074737   -2.044021   -1.233851
C       0.091438   -2.785872   -0.054269
O       0.109323   -4.150270   -0.159958
C       0.089374   -2.120470    1.172394
C       0.070842   -0.730700    1.221893
H       0.025904    1.756055   -0.735772
H       0.043312   -0.084485   -2.110043
H       0.076440   -2.567040   -2.183229
H       0.119185   -4.530778    0.723821
H       0.102318   -2.690237    2.098083
H       0.069118   -0.207678    2.171269
