19

O       0.260958    1.311372    0.020138
C       0.063128   -0.067852    0.005330
C      -1.418181   -0.416966    0.132812
O      -2.219186    0.496935    0.228259
C      -1.757371   -1.859015    0.129346
C      -2.840455   -2.522427    0.972923
C      -4.087124   -1.641039    1.132581
C      -4.229257   -1.603784   -0.424077
C      -2.978141   -2.486327   -0.534677
H      -0.632159    1.684523    0.111018
H       0.442484   -0.522026   -0.926410
H       0.603578   -0.563986    0.830004
H      -0.880229   -2.495259    0.033989
H      -2.558766   -3.346730    1.617832
H      -4.904654   -2.187028    1.608430
H      -3.949446   -0.683891    1.635670
H      -5.121746   -2.130198   -0.769399
H      -4.180855   -0.623266   -0.897832
H      -2.821285   -3.277919   -1.258233
