19

C      -0.001144    1.506995   -0.025430
C      -0.031964   -0.004943    0.069449
O       0.652924   -0.509980   -1.138666
C       0.703172   -1.921297   -1.191038
C      -0.001839   -2.524839    0.082231
C       0.760284   -1.918182    1.244803
C       0.734139   -0.587285    1.246553
C      -1.404557   -1.950220    0.030954
C      -1.422383   -0.619200    0.037343
H       1.030265    1.867528   -0.061672
H      -0.516064    1.844634   -0.928735
H      -0.495996    1.948535    0.845437
H       0.193108   -2.271841   -2.097639
H       1.750356   -2.248800   -1.224464
H       0.026357   -3.614535    0.060709
H       1.318021   -2.534917    1.939484
H       1.249739    0.055312    1.950951
H      -2.274045   -2.588075   -0.074617
H      -2.306542    0.002683   -0.043137
