19

C       0.251569    1.439659   -0.396972
N       0.037962    0.020101   -0.197415
C      -1.081404   -0.481111    0.402536
O      -1.985729    0.228164    0.815915
C      -1.136928   -1.991344    0.527439
C      -1.466813   -2.553530    1.944143
C      -2.435074   -3.571122    1.287406
C      -2.442810   -2.676803    0.020705
H       0.347185    1.684971   -1.460853
H      -0.618002    1.955986    0.011313
H       1.151489    1.786633    0.123512
H       0.741983   -0.625135   -0.513647
H      -0.246737   -2.470163    0.106423
H      -0.634252   -2.939198    2.537132
H      -2.004334   -1.796829    2.520222
H      -1.951528   -4.535193    1.103834
H      -3.390989   -3.751951    1.784034
H      -3.263345   -1.955855    0.039070
H      -2.407188   -3.163147   -0.956906
