19

C       0.250243    1.573654   -0.559130
C       0.006573    0.120703   -0.211404
C      -1.409913   -0.415928   -0.358431
C      -2.360562    0.061488    0.763362
O      -2.600245    1.468089    0.731671
C      -3.619374   -0.688169    0.729749
C      -4.663136   -1.280078    0.653627
C       1.126998   -0.832145   -0.272702
O       0.662496   -0.336826    0.985320
H       1.296497    1.835442   -0.382215
H       0.020979    1.757380   -1.615046
H      -0.388382    2.223052    0.042705
H      -1.828971   -0.129469   -1.330864
H      -1.386486   -1.509555   -0.327084
H      -1.856033   -0.117161    1.719655
H      -3.214918    1.640940    0.009648
H      -5.584713   -1.806624    0.612230
H       0.935668   -1.888389   -0.460144
H       2.113874   -0.482595   -0.574661
