21

C       0.016989    1.641530   -0.052581
C      -0.015970    0.119750   -0.081530
C       1.227449   -0.553164   -0.719290
O       1.947008   -0.308164    0.538760
C       0.634068   -0.575742    1.142965
C       0.510747   -2.092326    0.882085
C      -0.850696   -2.703728    0.437377
C      -0.376883   -2.685696   -1.049645
C       0.986583   -2.074220   -0.611282
H       0.998922    2.000324    0.264678
H      -0.199255    2.055261   -1.043632
H      -0.735620    2.034859    0.639507
H      -0.999008   -0.236707   -0.399083
H       1.728758   -0.151032   -1.601168
H       0.530028   -0.196643    2.160898
H       1.089129   -2.672650    1.601843
H      -1.020883   -3.709856    0.827101
H      -1.735224   -2.102669    0.665987
H      -0.283210   -3.681785   -1.488022
H      -0.970355   -2.073563   -1.734484
H       1.878775   -2.642605   -0.876396
