16

C      -0.037004    1.564093    0.014308
C      -0.007726    0.057872    0.003731
C      -1.165988   -0.676146   -0.003490
O      -2.366373   -0.055049   -0.000048
N      -1.133758   -2.036145   -0.011205
C       0.037107   -2.849035   -0.011035
O      -0.089723   -4.062445   -0.017274
C       1.242579   -2.062260   -0.003020
C       1.195731   -0.696176    0.004274
H       0.973203    1.962438   -0.110281
H      -0.658658    1.965624   -0.792752
H      -0.438301    1.963551    0.953118
H      -3.087785   -0.691512   -0.044631
H      -1.989307   -2.576520   -0.010093
H       2.178524   -2.605060   -0.004200
H       2.130104   -0.140325    0.008549
