19

C      -0.027314    1.527572    0.008853
C      -0.114494    0.003110   -0.088092
C       0.802586   -0.556134   -1.180888
N       0.762892   -2.002572   -1.262097
C       0.262086   -2.797964   -2.219633
N       0.396184   -4.073762   -1.897956
C       1.007443   -4.000210   -0.680644
N       1.289779   -5.130623    0.061052
N       1.259715   -2.770916   -0.244887
H       0.992166    1.854044    0.241991
H      -0.322383    2.007688   -0.931117
H      -0.685023    1.907628    0.795515
H       0.166292   -0.459219    0.863215
H      -1.145023   -0.307060   -0.297691
H       0.514879   -0.170732   -2.164637
H       1.839060   -0.252818   -0.995383
H      -0.181484   -2.413494   -3.126445
H       1.420540   -5.951642   -0.511351
H       2.029352   -4.999298    0.735418
