14

O       0.032252   -0.043505   -0.023001
C       0.101287    1.155015   -0.137609
C       1.373607    1.917749   -0.077093
N       2.741938    1.330172   -0.032852
C       2.985016    2.806033    0.051416
C       1.841910    3.116690   -0.969285
N       1.127474    4.123882   -0.123124
C       1.686724    3.150014    0.864934
H      -0.799045    1.791179   -0.276372
H       2.906696    0.876103    0.868266
H       3.980094    3.249613    0.119316
H       1.883910    3.146936   -2.057657
H       1.654635    5.000478   -0.095485
H       1.534062    3.222064    1.943815
