16

C       0.008754    1.235017    0.792840
N       0.047164   -0.138674    0.333513
C       0.429621   -0.592384   -0.897707
N       0.377104   -1.900469   -0.992836
C      -0.055555   -2.339673    0.236295
C      -0.253753   -1.268664    1.060505
O      -0.775680   -1.210294    2.328786
C       0.055271   -0.941554    3.370483
N       1.261172   -0.604945    3.233575
H       0.164460    1.892667   -0.064059
H      -0.965397    1.461959    1.235307
H       0.789181    1.410042    1.537432
H       0.732743    0.090878   -1.677786
H      -0.202946   -3.384243    0.460250
H      -0.512761   -1.058513    4.296468
H       1.695893   -0.457429    4.141865
