19

C      -0.170582    1.519097    0.014206
C      -0.047345    0.025086   -0.023479
C       0.177644   -0.768764   -1.127833
C       0.346053   -0.472382   -2.576710
O      -0.479843   -1.300132   -3.405146
N       0.264934   -2.082908   -0.685718
C       0.082006   -2.131021    0.669335
N       0.023653   -3.374255    1.322941
C      -0.096532   -0.841431    1.116311
H       0.695564    1.989665    0.496040
H      -0.254678    1.947870   -0.988542
H      -1.056005    1.829610    0.580990
H       0.160961    0.595414   -2.757485
H       1.366524   -0.683543   -2.921430
H      -1.386014   -1.181779   -3.098903
H       0.224501   -2.878842   -1.300184
H       0.898405   -3.886820    1.264015
H      -0.204596   -3.253192    2.301482
H      -0.229877   -0.541930    2.145610
