22

C      -0.181546    1.768916    0.328511
C      -0.011132    0.277574    0.020761
N       0.640902    0.116828   -1.281886
C       0.255669   -0.803374   -2.202509
O      -0.645192   -1.606179   -2.063508
C       0.712648   -0.493485    1.125785
C       2.118990   -0.035180    1.460998
C      -0.153581   -1.023886    2.244337
C       0.410555   -1.970307    1.210942
H       0.782682    2.288608    0.359809
H      -0.799656    2.251603   -0.433577
H      -0.661612    1.903364    1.301621
H      -0.998974   -0.175372   -0.102656
H       1.404496    0.730436   -1.519250
H       0.861692   -0.736996   -3.128514
H       2.140619    0.991666    1.843063
H       2.561487   -0.677488    2.228154
H       2.772467   -0.082430    0.581570
H       0.264602   -1.044924    3.245309
H      -1.218606   -0.815852    2.216571
H      -0.262034   -2.387347    0.470316
H       1.213093   -2.633953    1.515797
