24

C       0.243211    0.631461   -1.779764
C       0.053197   -0.125718   -0.456529
C       0.517346    0.710124    0.745310
C      -1.383919   -0.625599   -0.292207
C      -2.472965    0.434165   -0.316954
N      -1.668085   -1.888376   -1.008512
C      -1.689088   -1.872298    0.472896
C      -0.692046   -2.802933    1.128315
O      -1.008245   -4.154461    0.835102
H       1.302949    0.850031   -1.945866
H      -0.115263    0.033623   -2.623269
H      -0.290376    1.587931   -1.784598
H       0.684542   -1.017526   -0.514365
H       0.396298    0.163564    1.686381
H       1.574953    0.973930    0.644450
H      -0.044410    1.647047    0.828444
H      -2.501257    0.951175   -1.281678
H      -3.456522   -0.016049   -0.149073
H      -2.320092    1.190162    0.459831
H      -2.617607   -1.883022   -1.373112
H      -2.673760   -1.908318    0.937901
H       0.333917   -2.563163    0.818808
H      -0.741480   -2.702921    2.217902
H      -1.062996   -4.201758   -0.127339
