12

C       0.104912    1.469939    0.061303
C      -0.007899   -0.021294    0.001726
N      -0.062025   -0.581440   -1.161891
O      -0.165473   -1.946964   -1.249004
N      -0.215613   -2.769929   -0.152472
C      -0.162316   -2.220441    1.004327
F      -0.212230   -3.026612    2.039886
C      -0.052235   -0.781493    1.261756
O      -0.002591   -0.280756    2.367493
H       1.013072    1.753252    0.602571
H       0.125065    1.889835   -0.944483
H      -0.738102    1.884924    0.622612
