23

C      -0.082580    1.515282   -0.042042
C       0.016138    0.006844    0.017461
C       1.357443   -0.675581   -0.152580
C       0.669504   -0.689477    1.181965
C       1.242607   -0.098369    2.488869
C       0.783814   -1.371582    3.220709
C      -0.694268   -1.620537    3.067340
C      -1.769944   -0.555014    3.069471
C       0.217351   -1.942731    1.909242
H       0.788557    1.987756    0.423867
H      -0.134234    1.868840   -1.078087
H      -0.975277    1.882554    0.477550
H      -0.831721   -0.517025   -0.419199
H       1.402178   -1.601630   -0.718011
H       2.234555   -0.043920   -0.265644
H       2.331190   -0.002347    2.459318
H       0.819691    0.847605    2.844498
H       1.368410   -1.881824    3.976980
H      -0.993651   -2.526426    3.593255
H      -1.461887    0.342418    2.528458
H      -2.685801   -0.926009    2.595890
H      -2.022820   -0.257764    4.093536
H       0.306636   -2.947902    1.511055
