23

C      -0.195065    1.354250   -0.315450
C       0.139446   -0.100201   -0.077470
N       1.563363   -0.459231    0.046965
C       0.663399   -0.656508    1.199495
C       0.947751    0.161217    2.438421
N       1.858924   -0.582136    3.303824
C       3.292429   -0.387013    3.096403
C       2.631601    0.119055    4.333450
C       2.502808    1.601253    4.613191
H       0.483501    2.015021    0.227754
H      -0.110691    1.595368   -1.380701
H      -1.221419    1.575322   -0.002118
H      -0.484981   -0.788576   -0.647334
H       1.755099   -1.344431   -0.413305
H       0.374925   -1.680697    1.430741
H       1.333972    1.145162    2.138633
H       0.014034    0.322586    2.992883
H       3.905345   -1.284886    3.112926
H       3.595948    0.352870    2.357236
H       2.741012   -0.480539    5.237016
H       2.498021    2.202797    3.701327
H       1.586844    1.822607    5.172900
H       3.348873    1.935975    5.222925
