20

C       0.374940    1.793922   -0.226626
C       0.351927    0.300608    0.115721
C       0.516896   -0.588341   -1.118121
C       0.399857   -2.141181   -0.947996
C      -0.660993   -2.169711   -2.062516
C      -0.738692   -3.083074   -3.238823
N      -1.816477   -3.048716   -2.248171
C      -0.685178   -0.655873   -2.091974
O      -1.376133    0.165571   -2.624426
H       1.336730    2.081836   -0.665682
H      -0.408364    2.036678   -0.949409
H       0.220983    2.403680    0.668747
H       1.148589    0.063005    0.832063
H      -0.593783    0.048817    0.613020
H       1.426459   -0.309065   -1.664319
H       1.311076   -2.713675   -1.132276
H      -0.005157   -2.419623    0.030205
H      -0.999431   -2.672978   -4.210501
H      -0.054516   -3.928244   -3.256500
H      -1.737380   -3.841380   -1.613963
