16

O      -0.004406    1.438435   -0.129075
C      -0.043447    0.063416   -0.084169
C      -0.269433   -0.776130    1.144802
C      -1.179671   -0.966445   -0.057125
O      -2.541785   -0.793683   -0.004689
C      -0.464272   -1.797891   -1.142427
C       0.701330   -0.735989   -1.145056
C      -0.124418   -3.175334   -0.811309
N       0.141060   -4.260013   -0.509555
H      -0.293363    1.794127    0.716670
H       0.434198   -1.537772    1.477527
H      -0.775146   -0.246880    1.949628
H      -2.921683   -1.468673    0.570554
H      -1.023243   -1.771263   -2.080597
H       0.754857   -0.210797   -2.099788
H       1.691826   -1.107469   -0.870987
