23

C      -2.481913    0.202645   -2.398593
O      -1.855110   -0.997048   -2.018117
C      -0.452609   -0.964279   -2.208973
C       0.123438   -2.259010   -1.703160
C       0.090493   -3.549533   -2.515102
C      -0.537333   -3.641890   -3.889144
C       1.405171   -2.856736   -2.219901
C       2.247404   -2.206739   -3.296197
O       2.185079   -3.416518   -1.186149
H      -2.111548    1.062379   -1.816772
H      -2.329098    0.425840   -3.467364
H      -3.552824    0.087548   -2.213416
H      -0.223471   -0.796936   -3.273322
H      -0.016255   -0.114533   -1.655360
H      -0.016553   -2.396980   -0.635329
H      -0.066240   -4.432498   -1.900538
H      -0.340246   -2.760081   -4.504025
H      -0.157962   -4.511727   -4.437181
H      -1.624558   -3.743456   -3.808630
H       1.649180   -1.744966   -4.084191
H       2.892108   -1.438699   -2.857263
H       2.895193   -2.953154   -3.773329
H       2.666868   -4.164531   -1.557398
