17

C      -0.224168    1.350115    0.093202
O       0.374666    0.096341   -0.159704
C       0.864051   -0.524717    0.990913
C      -0.094328   -1.361097    1.859396
C      -0.153658   -2.539233    0.837903
C       0.270299   -3.490715    1.950022
N       1.092401   -2.255545    2.318052
C       1.299357   -1.972753    0.802488
H       0.480920    2.044785    0.574711
H      -0.526676    1.764967   -0.870917
H      -1.112748    1.259909    0.735332
H       1.559985    0.118761    1.549541
H      -0.859585   -1.060890    2.577412
H      -0.843740   -2.675327    0.001608
H      -0.467985   -3.762504    2.711965
H       0.885429   -4.357790    1.686784
H       2.164362   -2.378513    0.275767
