21

C      -0.069665    1.705182   -0.140221
C       0.061216    0.177311   -0.003177
C       0.707438   -0.472681   -1.191944
C       1.906577   -1.057412   -1.251778
C       2.241217   -1.609965   -2.613583
C       1.101908   -1.050649   -3.508310
C      -0.011669   -0.577146   -2.538834
C      -1.127996   -1.596123   -2.384622
O      -2.286094   -1.327099   -2.193364
H       0.911963    2.172686   -0.265862
H      -0.686101    1.978940   -1.001843
H      -0.539068    2.132059    0.751119
H       0.642077   -0.059419    0.895065
H      -0.939993   -0.247556    0.145795
H       2.583818   -1.139777   -0.407348
H       3.232490   -1.298586   -2.963178
H       2.256882   -2.708270   -2.603190
H       1.460775   -0.191733   -4.081377
H       0.737590   -1.785747   -4.232830
H      -0.476788    0.367014   -2.839083
H      -0.781382   -2.656602   -2.420999
