19

C      -0.134266    1.533958   -0.048811
C       0.003320    0.009260   -0.013708
O      -1.282637   -0.603549    0.020063
C       0.881738   -0.495022   -1.202316
C       2.232349   -0.721517   -0.585970
C       2.186088   -0.699249    0.755892
C       0.772665   -0.451689    1.250491
C       3.268971   -0.911970    1.642178
C       4.159304   -1.083247    2.436418
H       0.848942    2.014602   -0.020955
H      -0.636841    1.859165   -0.968341
H      -0.719021    1.883217    0.807175
H      -1.807542   -0.232907   -0.697402
H       0.461775   -1.432629   -1.591604
H       0.905912    0.214744   -2.038846
H       3.128816   -0.911698   -1.164426
H       0.731298    0.285543    2.058462
H       0.325372   -1.376088    1.633674
H       4.953498   -1.240118    3.123246
