17

O       1.955930    4.137259    0.206683
C       1.070506    3.326636    0.050984
N       1.222199    1.975130   -0.112415
C       2.411762    1.242333   -0.155397
C       2.497349   -0.092156   -0.256865
C       3.934596   -0.565814   -0.284891
C       4.727872    0.737847   -0.262079
N       4.484934    1.602689   -1.434555
C       3.770189    1.870165   -0.154615
H      -0.001679    3.603373    0.026656
H       0.368054    1.442830   -0.192950
H       1.653265   -0.766069   -0.353971
H       4.175936   -1.192741    0.584163
H       4.159448   -1.158141   -1.180266
H       5.699071    0.770883    0.219388
H       5.254607    2.266114   -1.509739
H       3.957984    2.790076    0.378054
