18

C      -1.300070   -2.035281    0.175012
C      -0.256582   -2.922273   -0.497854
N       0.630882   -2.093957   -1.330727
C       1.728365   -1.328891   -0.772289
C       2.128707   -1.369516    0.670047
O       2.573402   -0.390978    1.221130
C       1.970811   -2.520320   -1.702866
C       2.619851   -3.772537   -1.210370
O       2.427425   -4.308685   -0.143609
H      -0.837987   -1.347934    0.891388
H      -1.840295   -1.439638   -0.565884
H      -2.020008   -2.651618    0.720893
H       0.276525   -3.531987    0.237358
H      -0.747037   -3.615757   -1.189994
H       1.872448   -0.342809   -1.210008
H       1.996359   -2.329403    1.198417
H       2.246079   -2.272747   -2.727121
H       3.324121   -4.214981   -1.948492
