18

O      -0.036256   -0.057227    0.096248
C      -0.036882    1.124478   -0.137742
C       1.189569    2.009353   -0.061978
C       1.359379    2.870587   -1.333760
N       0.284404    3.861065   -1.483957
C       0.807736    5.147633   -0.972128
C       2.314707    5.156131   -1.274471
C       2.681235    3.670229   -1.251166
O       3.781159    3.193240   -1.166413
H      -0.965274    1.657508   -0.435481
H       1.066704    2.676898    0.802638
H       2.076426    1.392840    0.102645
H       1.402369    2.207153   -2.204250
H       0.056891    3.964814   -2.466217
H       0.262312    5.977666   -1.424749
H       0.636723    5.199857    0.109915
H       2.513817    5.534892   -2.285469
H       2.936866    5.724844   -0.580234
