15

O       0.066435    1.363252    0.371833
C       0.039303    0.000843   -0.039750
C      -1.351190   -0.545747   -0.089175
C      -1.973122   -1.268275   -1.030487
C      -3.365018   -1.589774   -0.554193
C      -3.454037   -0.879395    0.810609
O      -4.396852   -0.801844    1.561860
N      -2.200240   -0.325805    1.009547
H      -0.412815    1.877489   -0.287100
H       0.525944   -0.153157   -1.012338
H       0.629759   -0.533952    0.713813
H      -1.537615   -1.591759   -1.964092
H      -4.161272   -1.221424   -1.210992
H      -3.546961   -2.662633   -0.417087
H      -1.984885    0.301093    1.767972
