21

C       0.048510    1.422863    0.069743
C       0.547167   -0.010845    0.103127
O       0.080793   -0.619213    1.303178
C       0.447943   -1.952434    1.415406
C       1.857611   -2.404957    1.640202
O       2.598663   -1.448965    2.390841
C       1.733600   -1.660803    3.550947
C       1.240157   -0.387020    4.203703
C       0.803218   -2.569513    2.739023
H       0.434447    1.984503    0.925270
H       0.380921    1.919016   -0.847078
H      -1.044344    1.452357    0.104031
H       0.172532   -0.570485   -0.769220
H       1.644994   -0.047463    0.075889
H      -0.118080   -2.633259    0.772748
H       2.409592   -3.114291    1.032479
H       2.291666   -2.269507    4.275173
H       0.669867    0.215013    3.497197
H       0.602477   -0.634420    5.059716
H       2.089501    0.195628    4.575878
H       0.304467   -3.447898    3.127293
