21

C      -0.953549    1.231302   -0.100187
C      -0.102991   -0.045457   -0.067543
C       0.895176   -0.143838   -1.198162
C       2.099434   -0.542225   -0.797653
C       2.179462   -0.776986    0.690756
C       3.277985    0.059119    1.410580
C       2.501869    1.186291    2.042036
C       1.184578    1.025414    1.936936
C       0.795898   -0.236691    1.202897
H      -0.326813    2.127360   -0.061650
H      -1.545051    1.274913   -1.020931
H      -1.652350    1.268292    0.742563
H      -0.795886   -0.897769   -0.135318
H       0.618533    0.072562   -2.225617
H       2.954182   -0.700231   -1.448158
H       2.314641   -1.844124    0.902611
H       3.805495   -0.530255    2.172792
H       4.047547    0.416145    0.714350
H       2.988547    2.013717    2.547954
H       0.446453    1.703560    2.351031
H       0.306097   -0.932843    1.894776
