17

C      -0.779248    1.791770    0.184622
N      -0.833848    0.421213    0.651591
C      -0.288600   -0.463390   -0.067475
N      -0.307109   -1.797985    0.328367
C       0.256576   -2.818178   -0.403680
O       0.834133   -2.639180   -1.457279
C       0.124597   -4.205349    0.210623
C       1.482717   -4.895757    0.284046
O       1.829701   -5.577515    1.210341
H      -0.253735    1.914999   -0.774803
H      -1.798036    2.180901    0.076432
H      -0.281089    2.413639    0.937036
H       0.227207   -0.306321   -1.018687
H      -0.772750   -1.992994    1.202708
H      -0.346246   -4.224042    1.195926
H      -0.491727   -4.795893   -0.480744
H       2.123906   -4.719987   -0.602977
