20

C      -0.095890    0.013153    0.615949
N       0.301235   -0.999840   -0.344848
C       0.679514   -0.610669   -1.489349
O       1.072182   -1.352872   -2.521342
C       1.348711   -2.782821   -2.485608
C       2.808583   -3.020040   -2.081083
O       3.100014   -2.678759   -0.748223
C       0.346501   -3.648485   -1.707886
O       0.537592   -3.670065   -0.308913
H       0.552479   -0.038186    1.497353
H      -0.048030    1.034764    0.211726
H      -1.120458   -0.177718    0.953259
H       0.695365    0.444389   -1.785693
H       1.249836   -3.054163   -3.543468
H       3.034641   -4.078587   -2.301497
H       3.455472   -2.408993   -2.719446
H       2.446198   -3.153521   -0.212019
H      -0.676496   -3.343163   -1.975196
H       0.482439   -4.675595   -2.066233
H       0.357739   -2.736078   -0.039434
