16

N       0.034734    1.314626    0.070951
C      -0.046662   -0.036998    0.023930
N      -1.119127   -0.746222    0.030390
C      -0.761344   -2.171630    0.015889
C       0.762400   -2.256702    0.008029
C       1.569756   -3.305417    0.696616
N       1.544364   -3.245861   -0.763570
C       1.228628   -0.833788   -0.019328
O       2.350941   -0.390639   -0.057534
H       0.933179    1.717200   -0.143470
H      -0.788936    1.861245   -0.117245
H      -1.206610   -2.667139    0.887316
H      -1.198244   -2.644419   -0.874266
H       2.516858   -3.015359    1.143481
H       1.027914   -4.095675    1.210498
H       0.902985   -3.949471   -1.126310
