18

C      -0.530843    1.446627   -0.004850
C       0.089988    0.059520    0.015626
C       1.380188   -0.155316   -0.836147
N       2.040500   -0.663043    0.374377
C       0.931579   -0.327577    1.269934
C       3.353869   -0.729987    0.710743
N       3.746192   -0.764969    1.931826
C       4.259623   -0.782271   -0.429437
N       5.013002   -0.813102   -1.306382
H       0.214802    2.217143    0.219797
H      -0.962031    1.672066   -0.985920
H      -1.331164    1.528813    0.737933
H      -0.663210   -0.699238   -0.209732
H       1.317032   -0.883150   -1.650617
H       1.819695    0.773014   -1.221739
H       1.168482    0.507545    1.940536
H       0.575335   -1.169059    1.871031
H       4.756614   -0.863446    1.989654
