16

C       0.126555    1.457376    0.028239
C      -0.054322   -0.017804    0.012797
C      -1.161640   -0.811330   -0.061983
C      -0.698059   -2.163886   -0.033332
N      -1.479954   -3.311000   -0.015792
C       0.675202   -2.097919    0.052876
O       1.066106   -0.769077    0.088001
C       1.639809   -3.107595    0.106530
C       2.436758   -4.014791    0.139256
H       0.741536    1.791695   -0.814868
H      -0.843588    1.954739   -0.033920
H       0.625730    1.786382    0.946467
H      -2.185929   -0.476385   -0.120133
H      -2.317536   -3.249896   -0.577504
H      -0.960267   -4.152557   -0.228135
H       3.143916   -4.804874    0.185444
