19

C       0.304497    1.540570    0.022951
C      -0.036386    0.044979    0.004847
C       0.485763   -0.654266   -1.288646
C       1.400554   -1.817178   -0.914211
O       0.689463   -2.738286   -0.095395
C       0.747593   -2.160255    1.189749
C       1.927768   -1.234956    1.175152
O       2.479535   -1.330208   -0.120165
C       0.524001   -0.659382    1.236779
H       1.389382    1.688592    0.000858
H      -0.124073    2.049376   -0.847133
H      -0.085587    2.027694    0.923290
H      -1.127564   -0.055339    0.037190
H      -0.340293   -1.036375   -1.895632
H       1.053876    0.047496   -1.908064
H       1.808625   -2.351482   -1.774862
H       0.468323   -2.844128    1.979980
H       2.672961   -1.122875    1.951207
H       0.218791   -0.255440    2.198474
