22

C       0.019175    1.325663   -0.497062
C       0.090225   -0.179515   -0.225738
C       0.614765   -0.569728    1.166017
C       0.556416   -2.085551    1.361985
N       2.011615   -0.119568    1.286633
C       2.306993    1.150503    1.892707
C       2.713501   -0.125269    2.581663
C       2.038133   -0.452693    3.863599
O       2.597928   -0.977298    4.795642
H       1.012320    1.782926   -0.499580
H      -0.434232    1.519810   -1.473907
H      -0.588791    1.840313    0.256092
H      -0.911216   -0.613784   -0.333585
H       0.726592   -0.661450   -0.977608
H      -0.032145   -0.083372    1.916717
H       1.199413   -2.586590    0.631901
H       0.890194   -2.380379    2.361359
H      -0.466835   -2.448584    1.229623
H       3.074492    1.758885    1.421476
H       1.489138    1.713045    2.344721
H       3.749161   -0.452151    2.538562
H       0.965811   -0.163472    3.926286
