15

O      -0.023505    1.439607   -0.058311
C       0.018049    0.046129    0.014687
C      -0.053713   -0.670639    1.404982
C      -1.513384   -0.137800    1.525622
C      -1.373990   -0.649968    0.052302
C      -0.630793   -1.891759    0.636362
C      -2.376959   -0.641123   -0.982504
N      -3.179889   -0.640423   -1.814693
H       0.877564    1.775751   -0.043165
H       0.727785   -0.384712   -0.702890
H       0.709431   -0.686750    2.181587
H      -2.190752   -0.711095    2.161473
H      -1.637987    0.936605    1.643930
H       0.037219   -2.423517   -0.045970
H      -1.251691   -2.577088    1.214482
