23

C      -0.355335    1.510268    0.067277
C       0.031638    0.027450   -0.017032
C       0.769459   -0.381608   -1.330722
C       2.267515   -0.583926   -1.064328
C       2.835509    0.642147   -0.295238
C       2.433466   -0.095630    0.994031
C       2.515621   -1.455256    0.234711
C       1.250284   -1.946082    0.952321
C       0.894392   -0.444500    1.165696
H       0.513031    2.173230    0.096775
H      -0.968411    1.803657   -0.791914
H      -0.942115    1.700928    0.973130
H      -0.907458   -0.539977    0.030706
H       0.340383   -1.307506   -1.729418
H       0.630786    0.381986   -2.105347
H       2.794948   -0.898832   -1.968035
H       3.927637    0.687880   -0.363879
H       2.433294    1.631718   -0.527943
H       2.959911    0.095136    1.931042
H       3.418772   -2.067624    0.206461
H       0.526035   -2.567710    0.414011
H       1.512113   -2.445222    1.890517
H       0.445206   -0.168537    2.123420
