19

C      -0.225392    1.399934   -0.208329
C       1.166375    0.832340   -0.071264
C      -0.047256   -0.093937    0.017417
C       0.174721   -0.852876   -1.273321
C      -0.386194   -0.443416   -2.422351
C       0.656107   -0.132734   -3.475949
C       1.937757   -0.197886   -2.643863
C       2.125041    0.295068   -1.160092
C       1.673892   -1.097345   -1.478941
H      -0.574422    1.993385    0.632962
H      -0.586630    1.747681   -1.167625
H       1.692466    1.094163    0.842635
H      -0.336468   -0.551972    0.956697
H      -1.385830   -0.024948   -2.484135
H       0.719396   -0.840000   -4.316088
H       0.446611    0.852160   -3.914240
H       2.883664   -0.262356   -3.177090
H       3.173166    0.492682   -0.950074
H       2.178836   -2.025607   -1.233428
