19

C       0.276589    1.313112    0.372257
C      -0.109333   -0.137794    0.023091
C      -1.558280   -0.271067   -0.150564
C      -2.740849   -0.356435   -0.355520
C       0.582907   -0.608856   -1.258262
O       0.160131    0.042492   -2.421642
C       2.048160   -0.945700   -1.243356
C       1.010218   -2.044853   -1.394963
O       0.758425   -2.906538   -0.323492
H       1.350268    1.379103    0.570107
H       0.038593    1.975733   -0.463123
H      -0.264300    1.656874    1.257316
H       0.202611   -0.808847    0.830352
H      -3.789295   -0.447777   -0.497874
H      -0.795929   -0.087933   -2.482848
H       2.630837   -0.663739   -2.112852
H       2.566664   -0.887166   -0.291809
H       0.892227   -2.478026   -2.387653
H       1.523287   -3.481961   -0.216817
