13

N       0.131052   -1.145032   -0.045377
C       0.033096    0.008127   -0.005899
C      -0.026886    1.421344    0.042763
C      -1.122739    2.199059    0.062689
C      -0.703510    3.651362    0.109285
O       0.714078    3.623989    0.144367
C       1.206579    2.295793    0.074553
C      -2.477410    1.789804    0.039750
N      -3.598955    1.502111    0.022448
H      -1.061664    4.199436   -0.774460
H      -1.099349    4.158773    1.000179
H       1.837533    2.074501    0.946776
H       1.820569    2.153949   -0.826869
