18

C       0.071483    1.617949   -0.009018
C       1.215150    0.700698   -0.387185
C       2.478343    0.671031    0.447150
N       3.152784   -0.620754    0.308505
C       2.798941   -1.572773    1.051950
O       1.870504   -1.551917    2.068948
C       0.477427   -1.552416    1.767878
O      -0.065676   -0.287703    1.538664
C      -0.055006    0.140410    0.201502
H       0.188091    2.215441    0.888718
H      -0.511646    2.085934   -0.793847
H       1.370189    0.515737   -1.446511
H       3.170349    1.443395    0.097577
H       2.224444    0.880109    1.493082
H       3.305218   -2.536586    0.977617
H       0.286267   -2.222420    0.917780
H       0.002684   -1.932586    2.674119
H      -0.723974   -0.429018   -0.442386
