16

C      -0.093959    1.525354    0.152348
C      -0.020552    0.009669    0.010121
N       0.642640   -0.582383    1.159217
C       0.836709   -1.912923    1.280784
N       0.457471   -2.769240    0.402154
C       1.548699   -2.274407    2.565117
O       1.904660   -1.469618    3.389810
C       1.794124   -3.716322    2.763751
N       2.005085   -4.836878    2.956547
H       0.906211    1.965993    0.221065
H      -0.594064    1.961038   -0.716041
H      -0.658689    1.812821    1.045467
H      -1.024106   -0.423033   -0.087411
H       0.521271   -0.271824   -0.901505
H       0.980434    0.000664    1.908247
H       0.697176   -3.719556    0.681015
