18

C       0.098615    1.412972   -0.043022
N      -0.038281   -0.024510    0.063692
C      -1.235420   -0.650871    0.037261
C      -2.484205   -0.100939    0.000209
C      -3.501160   -1.150081    0.053978
O      -4.708763   -1.031038    0.105686
C      -2.758681   -2.485868    0.039234
C      -1.924921   -2.765089   -1.191301
C      -1.292893   -2.148124    0.041231
H       1.145124    1.687275    0.102105
H      -0.232646    1.789866   -1.020133
H      -0.498096    1.906383    0.731632
H       0.785607   -0.587917   -0.060912
H      -2.728498    0.947980   -0.084283
H      -3.169916   -3.316146    0.598592
H      -1.690571   -3.803649   -1.403804
H      -2.059903   -2.136104   -2.064821
H      -0.561468   -2.708955    0.612588
