14

O      -0.180387    0.194383    0.603867
C       0.074116    1.064083   -0.183758
C       1.339937    1.904244   -0.113614
O       1.311817    2.821178   -1.184055
C       2.447271    3.658863   -1.217362
C       2.347773    4.575236   -2.344162
C       2.291900    5.346707   -3.270128
C       2.226337    6.219000   -4.319035
N       2.172740    6.961636   -5.210228
H      -0.593698    1.329452   -1.031557
H       1.376474    2.413350    0.863637
H       2.215080    1.235792   -0.167124
H       2.536735    4.240397   -0.283848
H       3.373005    3.065947   -1.312801
