20

C      -0.029847    1.612467    0.000419
C       0.074673    0.096881    0.011099
C       1.133888   -0.605241   -0.908428
O       2.295123    0.154928   -1.175263
C       1.323985   -1.617041    0.231056
C       1.140561   -3.081099    0.142378
N       2.454675   -2.497094    0.468048
C       0.738961   -0.623006    1.233649
O       1.821342    0.124517    1.782337
H       0.947091    2.081002    0.144365
H      -0.420605    1.967361   -0.958239
H      -0.705444    1.970571    0.786020
H      -0.903955   -0.360558   -0.172316
H       0.782012   -0.979083   -1.873974
H       2.664527    0.401582   -0.316058
H       0.672802   -3.625916    0.958550
H       0.979820   -3.512297   -0.843184
H       3.061012   -2.488522   -0.350138
H       0.081194   -1.005152    2.024069
H       1.453792    0.892091    2.233949
