19

C      -0.028423    1.532552    0.010993
C      -0.005132    0.023070    0.026700
O      -1.151322   -0.593634   -0.503795
C       1.304471   -0.744528   -0.162945
O       2.534096   -0.068540   -0.173117
C       0.613612   -0.732733    1.182536
O       1.262045    0.000781    2.188300
C      -0.022001   -1.978034    1.756147
O       0.942034   -2.775128    2.417346
H       0.830736    1.955005    0.533818
H      -0.031267    1.914751   -1.018249
H      -0.936493    1.891428    0.504006
H      -1.163649   -0.437358   -1.455280
H       1.268377   -1.660843   -0.750646
H       2.562317    0.530678   -0.925984
H       2.123504    0.252274    1.824901
H      -0.832737   -1.678790    2.439787
H      -0.464589   -2.579780    0.960826
H       1.417838   -2.170927    3.000243
