20

C      -0.017139    1.480569   -0.012959
C       0.235744   -0.016089    0.037544
O       0.407318   -0.483447   -1.294829
C       0.622513   -1.857162   -1.379068
C       0.812699   -2.398221   -2.787078
N       2.079272   -1.822289   -3.304672
C       2.124807   -3.014525   -2.426728
C       2.074677   -2.414468   -1.012636
O       3.048507   -1.460695   -0.709054
H       0.832599    1.996833   -0.468496
H      -0.909448    1.701107   -0.605986
H      -0.162788    1.876525    0.996619
H       1.132302   -0.240706    0.630167
H      -0.616585   -0.536664    0.506743
H      -0.151689   -2.423019   -0.837085
H       0.049187   -2.749912   -3.469499
H       2.188184   -2.137439   -4.266774
H       2.570994   -3.942808   -2.760744
H       2.061189   -3.151780   -0.207842
H       3.078449   -0.881421   -1.484509
