17

O       0.029150    0.001499   -0.399956
C       0.023938    1.177700   -0.087731
N      -1.135773    1.848900    0.222886
C      -1.257415    3.303259    0.142347
C      -0.136636    3.974648    0.938354
C       1.231774    3.407245    0.560859
C       1.831292    2.313449    1.398625
C       1.280247    1.990452    0.022353
H      -1.965387    1.298132    0.050764
H      -1.228572    3.644252   -0.904100
H      -2.234548    3.585023    0.546056
H      -0.161421    5.052538    0.751513
H      -0.324847    3.832498    2.008063
H       1.926497    4.108731    0.110744
H       2.907484    2.272862    1.522581
H       1.265192    1.971942    2.259266
H       2.007264    1.738298   -0.740462
