18

C      -0.352213    1.487274    0.021324
C      -0.012322    0.017200   -0.106939
C       0.621826   -0.689655   -1.240341
C       1.749474    0.090804   -1.924993
N       1.516718    1.265385   -2.728143
C       2.393058    0.211239   -0.489625
C       2.680493    1.517138    0.086380
N       2.938349    2.546806    0.545044
N       1.301435   -0.621226    0.138184
H       0.348469    2.162218   -0.468932
H      -1.348622    1.658445   -0.401157
H      -0.385902    1.772312    1.077431
H      -0.762648   -0.605306    0.379796
H       0.225135   -1.627501   -1.618609
H       2.379653   -0.588234   -2.502832
H       1.506449    1.042950   -3.715590
H       0.642982    1.723070   -2.503287
H       3.315506   -0.373081   -0.435917
