23

C       0.444664    1.592868   -0.042872
C       0.107355    0.111226    0.012076
C       0.863064   -0.877423   -0.938014
C       1.255500   -1.761139    0.279142
C       0.619044   -0.707373    1.225450
O       1.917503   -0.298975    1.700830
C       2.578338   -1.412594    1.011228
C       2.964751   -2.481658    2.031459
C       3.787943   -0.939418    0.221798
H       1.506993    1.752981    0.159883
H       0.210671    2.012075   -1.027497
H      -0.124361    2.156995    0.704432
H      -0.975075   -0.032717   -0.085494
H       0.215501   -1.383981   -1.657261
H       1.700542   -0.444063   -1.490014
H       0.975940   -2.814066    0.247198
H      -0.073681   -0.916024    2.046735
H       2.087558   -2.823154    2.588811
H       3.416541   -3.348161    1.535880
H       3.686870   -2.076413    2.747142
H       4.554405   -0.564223    0.908043
H       4.222638   -1.764851   -0.352111
H       3.534296   -0.132059   -0.467902
