25

C       0.117842    1.544167    0.072569
C       0.012923    0.006809    0.000096
C       0.585802   -0.587252    1.302217
C      -1.487283   -0.359925   -0.072198
C       0.805638   -0.544872   -1.267819
C       2.212203    0.069831   -1.391461
C       0.921514   -2.083849   -1.253962
C       0.002517   -0.173840   -2.515852
O       0.177920    0.808689   -3.191644
H       1.133178    1.872693    0.309459
H      -0.178177    2.016434   -0.868248
H      -0.540942    1.921456    0.861763
H       0.104043   -0.111384    2.163224
H       0.403361   -1.662591    1.381806
H       1.662249   -0.417302    1.397207
H      -1.997137    0.150900   -0.895153
H      -1.653006   -1.435335   -0.186101
H      -1.983904   -0.052170    0.853840
H       2.779733   -0.034061   -0.463038
H       2.773918   -0.441489   -2.179767
H       2.163611    1.124578   -1.662142
H      -0.045233   -2.577890   -1.119994
H       1.342768   -2.439476   -2.200756
H       1.587277   -2.421569   -0.456310
H      -0.795506   -0.903146   -2.786056
