19

C       0.357110    1.449294    0.374412
C       0.039848   -0.025302    0.104242
O       0.531210   -0.751192    1.226900
C      -1.485113   -0.188215    0.090387
O      -2.176149   -0.336947   -0.888562
C       0.651488   -0.486889   -1.223636
O       0.152146    0.215254   -2.324977
C       2.101199   -0.839715   -1.301963
C       1.052885   -1.928142   -1.442197
H       1.426965    1.542924    0.578948
H       0.105066    2.050265   -0.500461
H      -0.192317    1.815568    1.246696
H       0.334194   -1.685720    1.097501
H      -1.925818   -0.172547    1.112119
H      -0.796980    0.022757   -2.352829
H       2.625520   -0.524880   -2.196508
H       2.678932   -0.817170   -0.385513
H       0.968220   -2.662487   -0.646760
H       0.864566   -2.321901   -2.434066
