18

O       0.016620   -0.020009   -0.162251
C      -0.005836    1.176183   -0.044416
N      -1.028604    2.078405    0.127848
C      -0.175050    3.281252    0.077679
C      -0.199660    4.213222    1.249857
C       0.894077    4.465225    1.969413
C       2.203418    3.749287    1.744160
C       1.965534    2.320983    1.225500
C       1.049353    2.312270   -0.005014
H      -2.030505    1.958952    0.087776
H      -0.330245    3.846917   -0.851306
H      -1.132228    4.733470    1.456284
H       0.855342    5.203845    2.766204
H       2.827994    4.315693    1.037958
H       2.772062    3.712374    2.679726
H       2.912824    1.827120    0.991109
H       1.498257    1.741693    2.029101
H       1.614431    2.406999   -0.935106
