17

C       0.045816    1.454692    0.020288
N       0.126711   -0.002936   -0.001525
C       0.154141   -0.683304   -1.218963
N       0.099082   -1.939735   -1.402016
C       0.084142   -2.781127   -0.255178
C       1.274723   -2.793263    0.654961
C      -0.007216   -2.144820    1.141922
C      -0.113931   -0.668794    1.204322
O      -0.410908   -0.049304    2.206761
H       0.331288    1.839182   -0.960297
H      -0.966292    1.790605    0.264721
H       0.723195    1.851826    0.778143
H       0.211455   -0.022269   -2.082377
H      -0.430238   -3.723207   -0.411238
H       1.546282   -3.731376    1.124332
H       2.110403   -2.151249    0.399149
H      -0.553667   -2.642540    1.933713
