16

C      -0.024984    1.483189    0.047128
C       0.004067   -0.021495   -0.016951
C       0.157921   -0.687929   -1.230115
C       0.173444   -2.077837   -1.191466
F       0.322074   -2.758751   -2.328395
C       0.037955   -2.768718   -0.006906
C      -0.112197   -1.997324    1.159501
N      -0.305970   -2.601030    2.385332
N      -0.123255   -0.660570    1.154337
H       0.121245    1.934697   -0.936709
H      -0.982944    1.826183    0.451554
H       0.754509    1.848429    0.723093
H       0.266456   -0.161530   -2.169059
H       0.041092   -3.851386    0.009359
H       0.062809   -3.530783    2.505189
H      -0.158408   -1.983641    3.169507
