17

C      -0.058900    1.527447   -0.095384
C       0.028411    0.026338   -0.028348
C      -0.809980   -0.757769    0.947418
C       0.691836   -0.790894    1.148316
N       1.341162   -1.876725    0.443129
C       1.142193   -1.659644   -0.906691
N       0.416398   -0.653591   -1.234999
C       1.332293   -0.251121    2.300020
C       1.879577    0.210634    3.267935
H       0.851553    1.949546   -0.530416
H      -0.905646    1.829614   -0.720566
H      -0.196286    1.953944    0.901906
H      -1.368057   -0.180620    1.676104
H      -1.285027   -1.675212    0.614494
H       2.221725   -2.228672    0.787726
H       1.566287   -2.354753   -1.624038
H       2.358085    0.620081    4.122821
