14

O      -0.075059    1.381307   -0.046882
C      -0.050890   -0.006929    0.049710
C      -0.464552   -0.760961    1.291839
C      -1.581531   -0.034915    2.001365
O      -2.785140   -0.802380    1.921879
C      -2.409032   -0.029402    0.769956
C      -3.333933    0.951685    0.291813
N      -4.081946    1.729440   -0.122434
C      -1.337544   -0.761738   -0.007849
H       0.719682    1.731369    0.370112
H       0.760144   -0.489599   -0.498863
H       0.106089   -1.586064    1.699452
H      -1.529618    0.720660    2.774741
H      -1.521315   -1.577321   -0.695003
