15

C       0.226568    0.618393    0.690742
O       0.229453    0.878846   -0.706804
C       0.680180   -0.129767   -1.472581
C       1.153288   -1.390388   -1.210249
C       1.473722   -1.967598   -2.489284
C       1.181859   -1.035622   -3.462945
N       0.699115    0.078635   -2.828664
C       1.996584   -3.263115   -2.716963
N       2.424634   -4.326098   -2.890593
H      -0.418941   -0.235816    0.927697
H       1.241608    0.414959    1.052442
H      -0.161729    1.517364    1.169744
H       1.267556   -1.863983   -0.250877
H       1.280059   -1.084153   -4.533727
H       0.398818    0.932261   -3.267775
