22

C       0.037569    1.458111   -0.226956
C       0.207490   -0.066295   -0.254128
C       0.791585   -0.603195    1.048509
C      -0.064009   -0.749433    2.354200
C      -0.729773   -2.001820    1.712849
C       0.790365   -2.127632    1.399673
C       1.029995   -1.730559    2.896167
C       2.377678   -1.257711    3.422289
H       0.990416    1.959775   -0.023589
H      -0.338701    1.834365   -1.183387
H      -0.668131    1.763883    0.552941
H      -0.753419   -0.531669   -0.494121
H       0.886800   -0.338724   -1.073264
H       1.756575   -0.113909    1.210050
H      -0.562310    0.046261    2.912765
H      -1.141616   -2.738392    2.408789
H      -1.407900   -1.842220    0.874956
H       1.283670   -2.930566    0.846575
H       0.615860   -2.469145    3.593005
H       2.868934   -0.515608    2.788729
H       2.259999   -0.813869    4.417351
H       3.062505   -2.107039    3.525285
