18

O      -0.201256    0.006827    0.072486
C      -0.021691    1.172019   -0.176756
C       1.259620    1.939459   -0.003875
C       1.600406    2.638028    1.357647
C       1.921009    1.210333    1.856237
N       2.537555    1.199946    0.432941
C       3.025684    2.594857    0.810205
C       3.880851    3.480986   -0.014722
C       4.368780    2.934042    1.333307
H      -0.846564    1.804223   -0.583487
H       1.415491    2.566956   -0.889337
H       1.069719    3.457081    1.853928
H       2.672495    1.118586    2.642082
H       1.109571    0.495929    1.977097
H       4.330346    3.064002   -0.910059
H       3.640080    4.537511   -0.077654
H       4.450909    3.628187    2.163597
H       5.132591    2.163730    1.308623
