23

C      -0.123387    1.579135    0.122647
C      -0.061232    0.049388   -0.005644
C      -1.472320   -0.554169   -0.009882
C       0.724268   -0.421362   -1.251955
O       0.120584    0.025492   -2.467444
C       2.216890   -0.070664   -1.213091
C       2.990573   -0.698741   -2.390247
C       4.396803   -0.318101   -2.413812
C       5.552282    0.014121   -2.409190
H       0.869518    2.035736    0.174010
H      -0.664135    2.027937   -0.719339
H      -0.662211    1.864056    1.031359
H       0.479348   -0.341546    0.867599
H      -2.015100   -0.247137   -0.908898
H      -1.436175   -1.648798   -0.001305
H      -2.043949   -0.229986    0.865485
H       0.633415   -1.514920   -1.301315
H       0.213167    0.983779   -2.506317
H       2.350121    1.017559   -1.242956
H       2.650813   -0.410995   -0.266089
H       2.906937   -1.792344   -2.337544
H       2.504082   -0.404212   -3.326914
H       6.575027    0.298508   -2.417887
