20

C      -0.077612    1.520148    0.011093
C      -0.020797    0.002082    0.002347
O      -1.341633   -0.499397    0.012224
C      -1.405253   -1.906429    0.005377
C      -2.869461   -2.325495    0.016912
C      -3.029067   -3.858098    0.010376
C      -4.423200   -4.283736    0.021217
C      -5.579398   -4.611817    0.030403
H       0.932769    1.939885    0.003701
H      -0.613816    1.889008   -0.867876
H      -0.596880    1.879438    0.904082
H       0.516807   -0.360218   -0.890904
H       0.533695   -0.369795    0.881224
H      -0.896951   -2.311891   -0.888026
H      -0.880302   -2.321277    0.884735
H      -3.356831   -1.906728    0.902945
H      -3.373335   -1.897508   -0.855378
H      -2.528904   -4.276597   -0.873341
H      -2.512479   -4.285786    0.880135
H      -6.597494   -4.912246    0.038413
