18

N      -0.379611    1.472958   -0.280262
C      -0.192151    0.092158   -0.097441
C      -1.141099   -0.923405   -0.091285
C      -2.638145   -0.936831   -0.162682
C      -3.247017   -0.292782   -1.411037
O      -3.166762    1.123826   -1.266774
N      -0.424171   -2.082646    0.037850
N       0.898384   -1.897161    0.137031
C       1.047114   -0.577171    0.045993
H       0.068569    2.028387    0.437431
H      -1.361404    1.711263   -0.359598
H      -2.984538   -1.976346   -0.113956
H      -3.075294   -0.427974    0.707356
H      -2.710101   -0.631266   -2.306925
H      -4.299422   -0.600603   -1.504348
H      -3.254276    1.527645   -2.134895
H      -0.791100   -3.018279    0.077859
H       2.034058   -0.138911    0.085634
