15

O       0.061085    0.130607   -0.662149
C       0.162074    1.037855    0.122691
C       1.310122    1.972425    0.187904
C       1.670216    3.006197    1.273965
C       2.106463    3.945991    0.123309
C       1.929957    5.392664    0.004836
O       3.230522    4.790865    0.106532
C       1.803268    2.874929   -0.906516
O       2.502004    1.696139   -0.539241
H      -0.630548    1.261640    0.871406
H       0.815189    3.385843    1.838670
H       2.461001    2.681726    1.952235
H       1.698392    5.838816   -0.961442
H       1.609147    5.965421    0.873570
H       1.470751    2.962076   -1.934910
