16

O       0.038425   -0.024129   -0.043657
C       0.006792    1.166844    0.012120
C      -1.102044    2.233214    0.064009
C      -1.511075    2.819797    1.441072
C      -0.279408    3.779849    1.291732
C       0.950150    3.362713    2.042704
C       1.705683    2.546294    1.305996
C       1.070374    2.311210   -0.035472
N      -0.053982    3.309112   -0.129843
H      -1.887329    2.122127   -0.689339
H      -2.476146    3.330202    1.402569
H      -1.500164    2.141218    2.295201
H      -0.514030    4.844704    1.379911
H       1.155598    3.671289    3.060944
H       2.624310    2.062751    1.613535
H       1.758605    2.285967   -0.885970
