25

C       0.184179    1.667762    0.490650
C       0.035903    0.144893    0.533612
C      -1.367321   -0.336341    0.136467
C      -1.480952   -1.849524    0.165864
C      -1.850390   -2.688000    1.358885
C      -3.011285   -2.070291    2.153881
C      -3.927601   -2.197059    0.887586
C      -4.758753   -1.019616    0.387790
C      -2.717972   -2.710047    0.087491
H       1.194194    1.980228    0.774274
H      -0.014645    2.056866   -0.514332
H      -0.518887    2.154189    1.176221
H       0.777169   -0.314587   -0.133961
H       0.268888   -0.222345    1.541280
H      -2.100115    0.126891    0.804323
H      -1.602873    0.028632   -0.873006
H      -0.673943   -2.319277   -0.398553
H      -1.194662   -3.462425    1.739590
H      -3.351681   -2.694657    2.982708
H      -2.844819   -1.058770    2.539934
H      -4.601782   -3.045157    1.050973
H      -4.155825   -0.125622    0.212295
H      -5.256360   -1.271847   -0.555666
H      -5.539356   -0.759455    1.112114
H      -2.786760   -3.490211   -0.663685
