16

C       0.459308   -0.837100    1.281109
C       0.016667   -0.095181    0.018222
C       0.873670   -0.408034   -1.219789
O       2.268451   -0.202551   -1.042860
C       0.747747   -1.891004   -1.609546
O      -0.293702   -2.485512   -1.649585
C       0.397620    0.424709   -2.426932
O      -0.733074    0.782943   -2.607743
H       0.342865   -1.919072    1.168673
H       1.508330   -0.634714    1.515714
H      -0.146521   -0.525084    2.136218
H      -1.014437   -0.343867   -0.245833
H       0.039908    0.989601    0.183762
H       2.405344    0.676037   -0.672931
H       1.724719   -2.359077   -1.854943
H       1.230225    0.681664   -3.119699
