21

C       0.107179    1.546109    0.090639
C      -0.008846    0.049374   -0.041855
C      -1.152603   -0.650044   -0.010803
C      -2.531742   -0.067575    0.162221
C      -1.147551   -2.169238   -0.150446
O      -0.545226   -2.672243   -1.335788
C       0.852244   -2.700653   -1.306943
O       1.461437   -1.445057   -1.390419
C       1.334932   -0.651115   -0.218055
H       0.791704    1.809291    0.908093
H       0.537298    1.979196   -0.821969
H      -0.842255    2.045773    0.283137
H      -3.149003   -0.275617   -0.721586
H      -3.044698   -0.536062    1.012788
H      -2.536771    1.009745    0.328078
H      -0.660557   -2.624860    0.730108
H      -2.177554   -2.536209   -0.172135
H       1.194569   -3.219585   -0.390144
H       1.167429   -3.255490   -2.193652
H       2.129021    0.097460   -0.289525
H       1.553823   -1.270720    0.669820
