21

C       0.073273    1.581575   -0.062522
C       0.047020    0.046156   -0.024579
C       0.829673   -0.538002   -1.207379
O       0.457691   -1.872594   -1.507441
C       1.114590   -2.873010   -0.770563
C       0.815388   -2.943655    0.707705
C       0.543500   -1.957241    1.563134
C       0.551693   -0.461296    1.334356
O       1.886991    0.049153    1.497894
H       1.096462    1.959081    0.014312
H      -0.363750    1.954398   -0.994225
H      -0.499287    2.004396    0.769394
H      -0.989565   -0.295670   -0.131653
H       0.603906    0.038940   -2.110546
H       1.910424   -0.463876   -1.018510
H       0.811876   -3.818818   -1.233570
H       2.210707   -2.796501   -0.903605
H       0.858428   -3.955435    1.110249
H       0.369014   -2.241705    2.600532
H      -0.093118   -0.008985    2.105393
H       2.316621   -0.466383    2.187165
