17

C      -0.052299   -1.205114   -0.028014
C      -0.040238   -0.005917    0.032765
C       0.003465    1.452761    0.061321
O      -0.705094    1.911629    1.217366
C      -0.580420    3.303753    1.352824
O       0.706559    3.687023    1.760892
C       1.717009    3.199612    0.917834
C       2.320203    1.861497    1.253920
C       1.427488    2.000448    0.044986
H      -0.068312   -2.266165   -0.072453
H      -0.515565    1.837460   -0.833920
H      -0.846287    3.795280    0.399140
H      -1.264389    3.613233    2.144715
H       2.355716    3.990865    0.534842
H       3.380808    1.704902    1.093371
H       1.901674    1.365548    2.122420
H       1.896763    1.970027   -0.932807
