15

N       0.061964    1.366604    0.155698
C      -0.021747   -0.004692    0.032690
C      -1.140316   -0.851169   -0.020674
C      -2.531085   -0.522702    0.002463
O      -3.443648   -1.339262    0.006839
C      -0.569654   -2.174168   -0.056307
N      -1.303951   -3.320120   -0.173524
N       0.750558   -2.155872   -0.019370
N       1.055182   -0.801602    0.028315
H       0.881646    1.789844   -0.256730
H      -0.778832    1.856428   -0.112765
H      -2.769930    0.566870    0.027423
H      -2.283419   -3.209375    0.049019
H      -0.855359   -4.173557    0.118221
H       2.019145   -0.532555    0.119590
