15

O      -0.028071    0.002656    0.094654
C      -0.049666    1.200822    0.033819
C      -1.278216    2.083083   -0.036542
C      -1.551813    2.908165    1.208501
C      -0.786555    3.510187    0.067765
C       0.731508    3.421892    0.057326
C       1.504513    2.792153    1.160831
N       1.138635    2.014446   -0.045845
H      -2.111435    1.752189   -0.643717
H      -2.578167    3.234338    1.336291
H      -1.055854    2.663237    2.140044
H      -1.237171    4.311293   -0.504239
H       1.245867    4.104748   -0.612990
H       2.567807    2.992876    1.259051
H       1.009858    2.549905    2.095328
