17

O      -0.177458    1.519268   -0.170049
C       0.091714    0.127933    0.012617
C      -1.195202   -0.766088    0.159747
C      -1.391734   -1.601121   -1.152369
C      -0.061351   -1.423213   -1.820253
C       0.726683   -0.522706   -1.167674
N       1.886205   -0.443152   -1.903299
C       1.726377   -1.311189   -2.954097
N       0.557477   -1.921992   -2.938319
H      -0.622864    1.613592   -1.020022
H       0.691062    0.098948    0.928254
H      -1.060591   -1.444276    1.007194
H      -2.050407   -0.126394    0.392131
H      -1.626559   -2.646454   -0.928368
H      -2.216603   -1.222814   -1.768264
H       2.693175    0.129242   -1.720442
H       2.500699   -1.454519   -3.693837
