18

O      -0.219131    0.426967    1.102652
C      -0.148963    1.323256    0.294671
C      -1.399628    1.868058   -0.411203
N      -1.224807    3.077170   -1.211634
C      -0.312875    4.027968   -0.570109
C       1.110496    3.467107   -0.487939
O       1.858183    3.870189    0.680987
C       2.023723    2.501918    1.116790
C       1.172888    1.981078   -0.062252
H      -1.813899    1.066782   -1.033253
H      -2.142460    2.050961    0.377616
H      -0.886506    2.844378   -2.139653
H      -0.337980    4.978990   -1.110497
H      -0.675122    4.221850    0.446905
H       1.668069    3.693218   -1.407487
H       3.075064    2.193070    1.105837
H       1.606136    2.322745    2.113299
H       1.707597    1.320723   -0.751240
