21

C      -0.025168    1.579835   -0.057931
C      -0.003808    0.066308   -0.016356
C       1.311609   -0.689523   -0.219581
C       0.643409   -0.669909    1.106652
C       1.130263   -0.304899    2.513370
C      -0.254763   -0.704164    3.074331
C       0.211978   -1.796001    2.067734
C      -0.352422   -3.149902    1.777407
O       1.569771   -1.709959    2.688456
H       0.882222    1.997023    0.391204
H      -0.084256    1.947207   -1.088335
H      -0.882985    1.985613    0.490213
H      -0.879748   -0.409055   -0.454537
H       1.293321   -1.606167   -0.801230
H       2.213715   -0.098965   -0.351333
H       1.813405    0.478924    2.839213
H      -0.252427   -1.016397    4.120068
H      -1.119277   -0.092173    2.804065
H      -1.349273   -3.058693    1.334168
H       0.291808   -3.691921    1.078202
H      -0.435613   -3.736202    2.697287
