25

C      -0.139869    1.572352    0.157609
C      -0.144382    0.048951    0.312009
C      -1.408113   -0.604519   -0.268295
C      -1.464149   -2.117071   -0.096392
C      -0.440091   -2.875568   -0.930610
C      -1.761110   -2.778176    1.229643
C      -2.790383   -1.998653    2.060464
C      -3.811531   -2.116576    0.882754
C      -2.761484   -2.878324    0.065106
H       0.766837    2.015672    0.581450
H      -0.190382    1.864364   -0.897524
H      -0.999689    2.025195    0.664434
H       0.747571   -0.365025   -0.173363
H      -0.061330   -0.215207    1.374081
H      -2.282340   -0.133738    0.193217
H      -1.477195   -0.369208   -1.340094
H       0.585753   -2.605049   -0.659452
H      -0.540833   -3.956869   -0.793037
H      -0.569648   -2.661802   -1.998089
H      -1.105785   -3.545587    1.627311
H      -3.119836   -2.548670    2.944687
H      -2.502513   -0.989917    2.373852
H      -4.663687   -2.746661    1.147625
H      -4.197077   -1.186616    0.452229
H      -2.978605   -3.731058   -0.569262
