21

C      -0.300209    1.433251   -0.135677
C       0.122472   -0.031549    0.043832
C       0.792212   -0.585435   -1.172964
C       0.122512   -1.141482   -2.411021
C       1.166447   -1.956876   -1.666323
C       2.549852   -1.364062   -1.930004
O       2.076670   -0.046256   -1.539200
O       0.917044   -3.186353   -1.106931
C       0.791283   -4.233383   -2.058387
H       0.565599    2.057190   -0.375467
H      -1.024655    1.536163   -0.949823
H      -0.757554    1.822154    0.778819
H       0.809839   -0.119030    0.893742
H      -0.748539   -0.655987    0.272712
H      -0.892617   -1.494128   -2.252316
H       0.324590   -0.708129   -3.387253
H       3.307779   -1.730627   -1.228049
H       2.942521   -1.379238   -2.953472
H       1.726643   -4.393150   -2.612534
H       0.550307   -5.141107   -1.501164
H      -0.011275   -4.024258   -2.778349
