18

C      -0.104956    1.444333    0.120441
N      -0.042520    0.007269   -0.035154
C       0.624526   -0.609762   -1.043986
C       1.269969    0.032497   -2.051748
C       1.837467   -0.675476   -3.193779
O       2.215568   -0.144050   -4.208733
O       1.909569   -2.049570   -3.112316
C       1.796983   -2.637468   -1.821194
C       0.584515   -2.116694   -1.057818
H       0.889844    1.885098    0.268988
H      -0.553497    1.910908   -0.764183
H      -0.724275    1.682613    0.986782
H      -0.373429   -0.562378    0.723506
H       1.306834    1.110854   -2.124113
H       1.728841   -3.715412   -1.986489
H       2.710181   -2.434356   -1.244580
H       0.593564   -2.518927   -0.037279
H      -0.344075   -2.456814   -1.533632
