20

C       0.494337    1.595305    0.036530
C       0.097954    0.123285    0.028021
C       0.881506   -0.821080   -0.956329
O       1.752364   -0.270911   -1.914248
C       1.448565   -1.618709    0.243608
C       2.694196   -1.005069    0.946157
C       1.776876   -0.356610    2.024140
C       0.528819   -0.794185    1.221563
H       1.567839    1.748109    0.192102
H       0.236320    2.062879   -0.918775
H      -0.027016    2.139770    0.831006
H      -0.980656    0.060365   -0.146720
H       0.186176   -1.437919   -1.532918
H       2.428705    0.238094   -1.456130
H       1.435320   -2.707068    0.169177
H       3.404468   -1.740417    1.329804
H       3.268209   -0.297628    0.336720
H       1.844868   -0.876848    2.983294
H       1.901573    0.712730    2.213642
H      -0.292836   -1.241290    1.782255
