11

N      -0.088274    1.335519    0.156352
C       0.085695    0.021400   -0.177122
O       1.153695   -0.440582   -0.506081
C      -1.225699   -0.792590   -0.164986
C      -1.021244   -2.219649    0.015377
C      -0.876469   -3.400819    0.172130
H       0.731431    1.919164    0.197463
H      -0.939639    1.679540    0.564104
H      -1.903994   -0.406323    0.606157
H      -1.722233   -0.602763   -1.126630
H      -0.731997   -4.443863    0.307541
