25

C      -0.101089    1.544133    0.515988
C      -0.023220    0.068736    0.103768
C      -1.391417   -0.578580   -0.012442
C      -1.564680   -2.064369   -0.302013
C      -0.390602   -3.008977   -0.478369
C      -0.775549   -4.465833   -0.194256
C      -1.925060   -1.525106    1.051428
O      -1.104971   -1.915537    2.110410
C      -1.270563   -1.121648    3.267436
H       0.897276    1.985586    0.596631
H      -0.665603    2.130398   -0.217721
H      -0.599563    1.664561    1.483839
H       0.501462   -0.004854   -0.857717
H       0.583918   -0.482584    0.828386
H      -2.140150    0.064936   -0.471312
H      -2.415351   -2.314531   -0.933323
H      -0.008636   -2.918962   -1.503603
H       0.426278   -2.718813    0.186784
H       0.073506   -5.138496   -0.352779
H      -1.109925   -4.577425    0.841471
H      -1.589817   -4.797722   -0.848521
H      -2.979612   -1.452275    1.323693
H      -0.608618   -1.529089    4.035420
H      -1.007694   -0.070152    3.087083
H      -2.307349   -1.160078    3.635304
