17

O       0.930991   -0.029449    0.304878
C       0.560263    1.083941    0.085180
O       1.300202    2.171195    0.367256
C       0.755944    3.465057    0.060952
C       0.685640    4.320632    1.349440
C       1.940830    5.168834    1.319959
O       3.131777    4.410695    1.085936
C       2.543244    5.105525   -0.018063
C       1.702471    4.213763   -0.908924
H      -0.419740    1.336712   -0.368368
H      -0.236918    3.323202   -0.379395
H      -0.198085    4.969244    1.332100
H       0.619892    3.681778    2.233833
H       2.047907    6.025483    1.980421
H       3.138193    5.910899   -0.441059
H       2.297175    3.505518   -1.491448
H       1.126052    4.830062   -1.608843
