21

C       0.094896    1.665166    0.424349
O       0.715856    0.459723    0.037202
C       0.751509   -0.501998    1.057594
C      -0.564764   -1.263998    1.402020
C       0.256208   -2.576210    1.395173
O      -0.310455   -3.736673    0.803175
C       1.411940   -1.840973    0.641208
C       1.422442   -2.130267   -0.860613
O       1.849576   -3.456456   -1.114707
H       0.608021    2.126747    1.282553
H       0.147292    2.346497   -0.427955
H      -0.961426    1.516636    0.694727
H       1.215184   -0.078716    1.961636
H      -1.110480   -1.004232    2.311169
H      -1.250768   -1.221491    0.547973
H       0.558869   -2.878472    2.400842
H      -0.918907   -3.453646    0.112938
H       2.415519   -2.020349    1.034797
H       0.432291   -1.930436   -1.302983
H       2.123850   -1.461917   -1.366752
H       1.266468   -4.025910   -0.595589
