20

C      -0.170219    1.588049   -0.104527
C       0.042024    0.081375   -0.082135
C       0.752140   -0.600997   -1.258353
C       2.201986   -0.198388   -1.328451
C       1.788005   -1.240217   -0.328624
C       2.349603   -2.630940   -0.277782
C       1.129468   -0.546951    0.887721
C       1.963526    0.358444    1.665471
N       2.627656    1.094329    2.261941
H       0.759590    2.131924   -0.292021
H      -0.882178    1.855716   -0.892432
H      -0.573664    1.943546    0.849083
H      -0.909406   -0.417336    0.123458
H       0.246049   -1.047903   -2.106272
H       2.743156   -0.588362   -2.184759
H       2.535241    0.785656   -1.010218
H       2.578984   -2.994879   -1.284312
H       3.277996   -2.662191    0.304673
H       1.644413   -3.334073    0.180394
H       0.670820   -1.270200    1.567061
