21

C      -0.173201    1.630753    0.016491
C       0.023480    0.123729    0.028611
C       1.136153   -0.589238   -0.802784
C       2.436961    0.065658   -0.287159
C       2.135641    0.060344    1.249225
C       0.759246   -0.610769    1.210836
O       0.173765   -0.839466    2.447986
C       1.009223   -1.771743    0.205409
O      -0.149335   -2.577918    0.125408
H       0.757306    2.188522    0.155025
H      -0.615534    1.959391   -0.930671
H      -0.856799    1.929522    0.818991
H      -0.929659   -0.378334   -0.148958
H       1.038253   -0.745372   -1.877991
H       3.321803   -0.525949   -0.540019
H       2.586713    1.071206   -0.687305
H       2.851638   -0.532070    1.825230
H       2.096552    1.059750    1.688773
H      -0.555239   -1.454533    2.301967
H       1.906979   -2.386726    0.361851
H      -0.071940   -3.155314   -0.639710
