18

C       0.016222    1.447264    0.088590
C       1.547901    1.451169   -0.089019
O       1.936580    1.298194   -1.492438
C       1.603220   -0.111516   -1.400886
C       2.738479   -1.163056   -1.301672
C       2.437258   -1.250020    0.252414
C       1.444478   -0.079053    0.091975
N      -0.096111   -0.057383   -0.023751
C       0.090721   -0.420185   -1.494931
H      -0.262725    1.742321    1.105600
H      -0.572389    2.011085   -0.640406
H       2.164196    2.179978    0.441764
H       2.612484   -2.086971   -1.871130
H       3.712304   -0.728445   -1.534035
H       1.932901   -2.173346    0.547632
H       3.281932   -1.088358    0.925530
H      -0.507314    0.167227   -2.196995
H      -0.121114   -1.483956   -1.637655
