17

C      -0.232587    1.542146    0.025075
C      -0.147589    0.041417   -0.005066
C      -0.014718   -0.598854   -1.202182
C       0.088477   -1.983071   -1.533240
C       0.080268   -3.063191   -0.705786
C      -0.035885   -3.060696    0.714824
C      -0.163152   -2.013718    1.569375
C      -0.224202   -0.567243    1.346513
O      -0.344240    0.172702    2.322582
H       0.568673    1.954314    0.647501
H      -0.175223    1.972409   -0.976908
H      -1.163252    1.859030    0.507492
H       0.020057    0.056332   -2.070760
H       0.186603   -2.187945   -2.596306
H       0.171944   -4.041112   -1.170095
H      -0.019528   -4.046083    1.175779
H      -0.237401   -2.240695    2.629986
