18

C      -0.495859    0.661109    0.239326
N       0.851428    0.543841   -0.311894
C       1.063697   -0.539272   -1.235731
C       1.032133   -2.012621   -0.634983
N      -0.024832   -2.307518   -1.619312
C      -0.844951   -3.116252   -2.365343
C      -1.345203   -2.255281   -3.327822
N      -0.832713   -0.971912   -3.214045
C      -0.044455   -1.074325   -2.168685
H      -1.284554    0.738288   -0.524397
H      -0.721873   -0.208323    0.865902
H      -0.539029    1.544334    0.881994
H       1.125202    1.417193   -0.744986
H       2.002216   -0.351911   -1.765389
H       1.947283   -2.592913   -0.778385
H       0.703732   -2.080425    0.404599
H      -1.025706   -4.157454   -2.160344
H      -2.061273   -2.496425   -4.099989
