21

C      -0.188721    1.381962    0.001995
O      -0.171054   -0.039860   -0.035836
C       0.531011   -0.639586    0.944763
N       0.596346   -1.893377    1.015164
C       1.381770   -2.474151    2.092636
C       0.470339   -3.334833    2.977157
C       2.501905   -3.304356    1.487365
C       3.816366   -2.690271    1.196064
N       3.675535   -3.665884    2.296728
H       0.823408    1.799105   -0.066987
H      -0.766701    1.704899   -0.864493
H      -0.671660    1.753953    0.913835
H       1.019613    0.055838    1.646754
H       1.850545   -1.691535    2.721532
H      -0.309767   -2.722480    3.438659
H      -0.017211   -4.106973    2.374952
H       1.046912   -3.822679    3.769152
H       2.150874   -4.106349    0.841440
H       4.410029   -3.032468    0.353449
H       3.951709   -1.640431    1.447063
H       3.645459   -3.169933    3.185757
