15

O      -0.063814   -0.050310    0.004775
C       0.011771    1.155499    0.010625
C      -1.211678    2.119559    0.031379
C      -0.670109    3.581607    0.031276
C       0.794838    3.322320    0.009782
C       1.195060    2.021486   -0.002016
C       2.631660    2.044598   -0.022210
C       2.962216    3.361088   -0.020447
O       1.836668    4.166069   -0.000511
H      -1.839526    1.910275   -0.839150
H      -1.816227    1.901786    0.916191
H      -1.005983    4.153263   -0.841093
H      -0.981783    4.144489    0.918211
H       3.316677    1.212252   -0.035897
H       3.899200    3.892808   -0.031045
