22

C       0.030874    1.623114    0.017546
C      -0.125106    0.106206   -0.104779
C       0.776926   -0.498491   -1.189760
O       2.147664   -0.185184   -0.971539
C       0.607957   -2.024773   -1.309921
C       1.296805   -2.580931   -2.556283
O       1.172901   -2.550088   -0.107911
C       0.824128   -3.879382    0.199626
H       1.073541    1.884926    0.214263
H      -0.268993    2.128165   -0.907951
H      -0.585950    2.021116    0.829030
H       0.110279   -0.380023    0.849285
H      -1.168294   -0.148060   -0.335568
H       0.522279   -0.047905   -2.157836
H       2.433930   -0.767430   -0.255979
H      -0.467528   -2.265189   -1.337373
H       1.247577   -3.672530   -2.596076
H       0.810757   -2.195354   -3.458312
H       2.344533   -2.270683   -2.568515
H       1.222648   -4.600465   -0.527714
H       1.251175   -4.105691    1.180019
H      -0.267936   -4.007894    0.251323
