13

N      -0.054207    1.232760    0.420232
C      -0.040925    0.019717    0.094284
C      -1.099041   -0.968140   -0.388740
C       0.039815   -2.033148   -0.445311
N       0.961955   -0.982931    0.026805
C       2.297893   -0.953244    0.307244
O       2.885834    0.032832    0.694474
H       0.880334    1.540846    0.693959
H      -1.889289   -1.171591    0.335283
H      -1.545904   -0.714816   -1.351150
H      -0.065607   -2.868893    0.251204
H       0.279281   -2.410122   -1.442939
H       2.786873   -1.933402    0.141726
