15

O      -0.553640    1.195536    0.954493
C       0.160446    0.939168    0.021082
C       1.496672    1.612450   -0.197650
O       2.338526    0.868233   -1.132812
C       2.338902    1.908289   -2.050709
O       2.883805    1.952688   -3.104078
C       1.470914    2.778247   -1.193936
C       0.349721    3.684522   -1.636985
C       1.568586    4.264909   -0.986056
H      -0.122944    0.218195   -0.776325
H       2.009495    1.798147    0.748575
H       0.220369    3.810688   -2.706063
H      -0.568251    3.643225   -1.060655
H       1.485502    4.625204    0.033323
H       2.286143    4.791928   -1.605308
