19

C       0.103424    1.509082   -0.027767
C       0.046222    0.054552   -0.034934
C      -0.002216   -1.148088   -0.031523
C      -0.031414   -2.606710   -0.031346
N      -1.394536   -3.152240    0.005555
C      -2.176763   -2.782540   -1.169534
C      -1.347200   -4.593904    0.202523
C      -2.672153   -5.154690    0.492227
N      -3.709058   -5.613456    0.711957
H       0.977953    1.866084    0.527029
H       0.166008    1.913550   -1.043789
H      -0.786185    1.936162    0.447589
H       0.531909   -2.982094   -0.910108
H       0.499303   -2.977516    0.855004
H      -1.755679   -3.192134   -2.107222
H      -3.199599   -3.151179   -1.060099
H      -2.205434   -1.694644   -1.250384
H      -0.932498   -5.141911   -0.667548
H      -0.695194   -4.816631    1.055042
