18

C      -0.079535    1.553816    0.056027
C       0.120352    0.072785    0.004774
N      -0.779270   -0.894118    0.730315
C       0.673245   -0.929098    0.986936
C       1.261874   -1.774782   -0.128960
C       2.623580   -2.414041   -0.228310
C       1.382977   -3.262173   -0.286570
C       0.740102   -0.749592   -1.123871
O       0.910789   -0.563205   -2.295354
H       0.799650    2.077832   -0.331379
H      -0.939567    1.852977   -0.552612
H      -0.255946    1.893989    1.082246
H      -1.212729   -0.345716    1.476401
H       1.096958   -0.734193    1.964111
H       3.175565   -2.241235   -1.146300
H       3.229108   -2.447294    0.671385
H       1.136846   -3.876140    0.572998
H       1.092136   -3.679899   -1.244604
