21

C      -0.017438    1.519688   -0.018902
C       0.039947    0.011592    0.008513
C      -1.261523   -0.794692   -0.190242
C      -0.717420   -2.110258    0.408800
C      -0.445979   -1.674391    1.873312
C       0.653487   -0.817895    1.228563
C       0.837225   -1.908431    0.119122
C       1.027789   -0.789578   -0.903309
O       0.794998   -0.958975   -2.279852
H       0.968398    1.960419    0.165782
H      -0.360763    1.875613   -0.997272
H      -0.706287    1.911010    0.738489
H      -2.111004   -0.401383    0.376570
H      -1.561152   -0.847878   -1.242364
H      -1.232092   -3.042269    0.175603
H      -1.261502   -1.194216    2.424930
H      -0.013257   -2.475555    2.479686
H       1.484631   -0.370951    1.773027
H       1.495161   -2.770491    0.223143
H       2.036779   -0.371178   -0.820223
H       0.027743   -1.527965   -2.391565
