17

C      -0.127208    1.540383    0.110383
C      -0.018685    0.035172    0.066508
C       1.239040   -0.650859   -0.324606
C       0.783396   -0.730669    1.138990
C       1.512146    0.016060    2.123003
N       2.085054    0.581740    2.955939
C       0.193079   -2.063654    1.563200
N       0.389712   -2.411091    2.858294
O      -0.417376   -2.750798    0.765267
H       0.811801    2.005108    0.423729
H      -0.379362    1.924425   -0.883394
H      -0.910052    1.861746    0.804182
H      -0.925466   -0.503264   -0.191043
H       1.167835   -1.589009   -0.861507
H       2.119813   -0.049044   -0.518771
H       0.906341   -1.833851    3.500119
H       0.014371   -3.289905    3.173959
