17

C      -0.119387    1.582729   -0.263405
C      -0.005092    0.072012   -0.045830
C       0.664126   -0.635895   -1.224416
C       0.796875   -2.134330   -1.035274
O       0.412335   -2.733967   -0.055877
C       1.434932   -2.847175   -2.135533
C       1.953483   -3.442819   -3.052846
C       2.601536   -4.159700   -4.125422
O       2.036641   -4.534035   -5.125192
H       0.866178    2.043043   -0.394892
H      -0.713835    1.814779   -1.154067
H      -0.600274    2.065893    0.592073
H       0.563965   -0.137743    0.865993
H      -0.996329   -0.364394    0.115415
H       0.111636   -0.467661   -2.160071
H       1.669665   -0.233803   -1.415384
H       3.681348   -4.342386   -3.955856
