16

C      -0.010545    1.636844    1.147849
C      -0.109176    0.536349    0.069759
C       0.704339   -0.630137    0.394480
C       1.363763   -1.597842    0.672068
C      -1.606614    0.227756   -0.218559
O      -2.398230    1.122243   -0.362878
N      -1.915852   -1.125160   -0.317502
C      -3.153771   -1.696746   -0.608243
O      -4.175117   -1.114078   -0.840158
H       1.018701    1.991649    1.231929
H      -0.663020    2.465300    0.869271
H      -0.324630    1.251564    2.121407
H       0.258222    0.958512   -0.876290
H       1.964210   -2.439282    0.917986
H      -1.151696   -1.765427   -0.142142
H      -3.068688   -2.802626   -0.598995
