19

C      -0.049560    1.571456    0.122913
C       0.069299    0.061764    0.272189
C       0.579990   -0.779259   -0.957149
C       1.742880   -1.275064   -0.094210
O       2.464413   -0.122231    0.376719
C       1.274619   -0.469933    1.070181
C       2.411046   -2.602975   -0.118434
C       3.670621   -2.756222    0.707264
O       1.939166   -3.500420   -0.783481
H       0.899308    1.996504   -0.216350
H      -0.821516    1.830750   -0.608886
H      -0.317283    2.045582    1.073457
H      -0.857772   -0.369460    0.662104
H      -0.097598   -1.584144   -1.242824
H       0.880849   -0.213876   -1.842117
H       1.362434   -0.668759    2.133611
H       3.519736   -2.402150    1.731779
H       3.974788   -3.803395    0.709867
H       4.467140   -2.137955    0.280039
