19

O      -0.077605    1.459844    0.124958
C      -0.002569    0.045519   -0.011815
C      -1.422864   -0.509726   -0.072236
N      -2.165672   -0.138747   -1.255553
C      -2.701960    1.190102   -1.512497
C      -3.413291    0.981297   -2.865883
N      -2.630722   -0.108485   -3.436811
C      -2.053996   -0.869933   -2.422083
O      -1.538615   -1.963601   -2.541977
H       0.812198    1.817802    0.057129
H       0.534616   -0.244531   -0.926063
H       0.518313   -0.410039    0.845736
H      -1.369376   -1.601931   -0.060354
H      -1.976259   -0.177366    0.813778
H      -3.392049    1.503766   -0.722950
H      -1.904005    1.937806   -1.583256
H      -4.466178    0.701313   -2.715427
H      -3.380616    1.878210   -3.490034
H      -2.986496   -0.630693   -4.222338
