21

C       0.704497    1.314906   -0.491572
C       0.045341    0.068465    0.098363
O       0.009210   -1.001596   -0.868225
C       1.107214   -1.889656   -0.692193
C       2.125043   -1.826282   -1.829951
C       1.710210   -1.531921    0.668252
O       2.743307   -1.954997    1.118933
C       0.760553   -0.532737    1.324611
C       1.433552    0.395264    2.329526
H       1.774490    1.165988   -0.671995
H       0.229202    1.556728   -1.445734
H       0.590763    2.173611    0.177686
H      -1.001079    0.296875    0.325202
H       0.709906   -2.913898   -0.628217
H       2.547204   -0.822438   -1.929173
H       2.940686   -2.525995   -1.626470
H       1.650093   -2.095850   -2.776505
H       0.021877   -1.158859    1.848534
H       2.162360    1.051383    1.846548
H       0.701152    1.020220    2.848820
H       1.971433   -0.199719    3.072254
