18

O      -0.641134    0.712126    0.696301
C       0.043755    0.992616   -0.252653
C       1.332995    1.779438   -0.191419
C       1.281618    3.034513   -1.081870
C       2.607031    3.786061   -1.118590
C       3.761351    3.156728   -1.935043
O       3.810044    4.285974   -2.828372
C       2.728171    4.942234   -2.137937
H      -0.250750    0.680482   -1.283108
H       1.537668    2.034765    0.852521
H       2.138477    1.119546   -0.546616
H       0.999581    2.749439   -2.104611
H       0.492839    3.704982   -0.717698
H       2.904441    4.072207   -0.105916
H       4.709763    3.012382   -1.403452
H       3.508629    2.226274   -2.463529
H       1.852711    5.085361   -2.786011
H       3.029985    5.914937   -1.730930
