18

C       0.006498    1.541804    0.061347
C       0.047565    0.043672    0.001414
C      -0.836006   -0.834717    0.832796
C       0.664863   -0.962750    1.016528
C       1.238756   -1.792059   -0.146543
C       0.623342   -0.777671   -1.161541
C       1.311617   -0.713539    2.257466
C       1.881084   -0.498389    3.297172
H       0.958547    1.978931   -0.259245
H      -0.780292    1.941393   -0.590332
H      -0.195292    1.888692    1.079680
H      -1.351951   -0.340648    1.649403
H      -1.387341   -1.660072    0.385436
H       2.329723   -1.790522   -0.163434
H       0.885924   -2.826786   -0.201472
H      -0.109259   -1.171495   -1.873928
H       1.392250   -0.236345   -1.718113
H       2.376300   -0.313743    4.217655
