20

C       0.240750    1.354570   -0.380050
C       0.055557   -0.024076    0.282267
C       0.480272   -0.019247    1.763378
N       1.879729    0.330329    1.963727
C       2.885338   -0.551228    1.729693
O       2.730388   -1.675386    1.297894
C      -1.416058   -0.430092    0.174384
C      -1.811366   -1.246001   -1.040148
O      -2.219493   -0.101667    1.019246
H       1.284149    1.672876   -0.304627
H      -0.023303    1.332357   -1.441609
H      -0.389251    2.105021    0.109375
H       0.670920   -0.758236   -0.247751
H      -0.140275    0.685251    2.320184
H       0.314108   -1.014266    2.186193
H       2.114888    1.237130    2.331960
H       3.879003   -0.128520    1.979980
H      -1.419657   -0.798721   -1.959951
H      -1.365108   -2.244922   -0.962556
H      -2.896678   -1.337225   -1.097589
