20

C      -0.069804    1.515312    0.009208
C      -0.042179   -0.000475   -0.044027
O      -1.393634   -0.466767    0.039583
C      -1.560690   -1.799825    0.008248
N      -2.710627   -2.308174    0.079757
C      -2.802615   -3.752770    0.044490
C      -3.505788   -4.265436    1.320043
C      -3.694782   -5.709689    1.311346
C      -3.833996   -6.903220    1.275280
H       0.947945    1.911148   -0.053327
H      -0.652915    1.918301   -0.823067
H      -0.521243    1.858893    0.943684
H       0.412423   -0.350961   -0.980522
H       0.542769   -0.410842    0.790227
H      -0.627369   -2.378114   -0.087491
H      -3.404855   -4.047977   -0.822637
H      -1.822639   -4.248997   -0.054508
H      -2.914877   -3.969118    2.195504
H      -4.470503   -3.753602    1.413403
H      -3.967157   -7.956270    1.256534
