19

O       0.024183    1.403326   -0.015135
C       0.053429   -0.014276    0.026681
C       0.796434   -0.534772    1.268686
C       0.641849   -2.023128    1.440346
C      -0.445377   -2.684892    1.040927
C      -1.624019   -2.006810    0.411942
C      -2.623091   -1.328435    1.395942
O      -2.197583   -0.009090    0.993338
C      -1.366087   -0.554765   -0.064483
H      -0.636216    1.675115    0.635328
H       0.597933   -0.335629   -0.869527
H       1.850968   -0.251418    1.199240
H       0.398809   -0.013025    2.150688
H       1.453207   -2.562429    1.922145
H      -0.520369   -3.757451    1.201588
H      -2.106251   -2.649963   -0.327177
H      -3.683084   -1.496091    1.166763
H      -2.443996   -1.512806    2.460338
H      -1.792933   -0.314889   -1.046339
