17

N      -0.349319   -1.054272    0.586637
C      -0.166210    0.052075    0.305315
C       0.060558    1.423452   -0.084634
N       0.712837    2.297052    0.913407
C       1.440409    1.959446   -0.311495
C       2.684854    1.114691   -0.152442
C       3.861060    1.966642    0.264040
C       5.211112    1.751679   -0.266266
O       4.400600    2.826358   -0.747539
H      -0.737464    1.838854   -0.693947
H       0.307901    3.228050    0.861900
H       1.511165    2.725906   -1.081081
H       2.506906    0.338262    0.598906
H       2.910642    0.618996   -1.103074
H       3.762277    2.441957    1.240672
H       6.078598    2.046766    0.321869
H       5.384837    0.943577   -0.975885
