18

O      -0.035145    1.427488    0.008179
C       0.009470    0.007778    0.001240
C      -1.389979   -0.520509    0.011895
C      -2.539381    0.234079    0.023059
N      -3.606692   -0.627547    0.030177
C      -3.160030   -1.924486    0.023437
C      -1.785369   -1.895643    0.012117
C      -0.880244   -3.086565    0.001714
O      -1.672115   -4.265758    0.009406
H       0.869043    1.752972    0.001647
H       0.548602   -0.363175   -0.888822
H       0.565070   -0.371466    0.877564
H      -2.668136    1.302723    0.026690
H      -4.571651   -0.350093    0.039267
H      -3.836728   -2.761538    0.027417
H      -0.226685   -3.059017   -0.888558
H      -0.207796   -3.059953    0.877823
H      -1.078895   -5.021792    0.003055
