13

O       0.281381    1.321769    0.008840
C       0.050989   -0.003741    0.009270
C      -1.088292   -0.747407    0.074122
N      -0.657540   -2.086214    0.031701
C      -1.016358   -3.412368    0.037736
N       0.060489   -4.162749   -0.040237
N       1.182614   -3.351760   -0.101819
C       0.706952   -2.131632   -0.056303
N       1.156966   -0.830704   -0.068931
H      -0.556837    1.792059    0.064545
H      -2.119011   -0.452754    0.145361
H      -2.032548   -3.763570    0.098819
H       2.111841   -0.527088   -0.135193
