16

C       0.159140    1.209735    0.416102
N      -0.154972    0.156300   -0.560872
C      -1.234971   -0.668990   -0.238539
C      -1.304509   -1.966517    0.123267
O      -0.304639   -2.847151    0.394028
N      -2.662759   -2.322463    0.201107
C      -3.473116   -1.215985   -0.038707
O      -4.686089   -1.150252   -0.011941
N      -2.560204   -0.207459   -0.317113
H       0.998114    1.801166    0.040563
H      -0.700223    1.877718    0.521183
H       0.410999    0.820379    1.413471
H       0.661357   -0.417452   -0.734365
H      -0.254309   -3.506616   -0.310375
H      -3.020092   -3.160258    0.626073
H      -2.842311    0.686173   -0.679359
