18

C      -0.048692   -1.388799   -0.359501
C      -0.006650   -0.202158   -0.169992
C       0.061836    1.228721    0.061629
C      -0.821588    1.995286   -0.956064
C      -2.246966    1.703381   -0.815655
N      -3.374470    1.485600   -0.688223
C      -0.163444    1.726016    1.533231
C       1.059498    2.668729    1.384486
C       1.496243    1.864000    0.132517
H      -0.097614   -2.436912   -0.524105
H      -0.678180    3.073776   -0.825393
H      -0.506340    1.747398   -1.975012
H      -1.138488    2.170577    1.744824
H       0.016253    0.919775    2.246130
H       0.774196    3.697107    1.148058
H       1.762676    2.695356    2.218309
H       2.243810    1.103937    0.365056
H       1.822631    2.419503   -0.750724
