21

C      -0.169491    1.349880   -0.056247
N       0.087293   -0.083622    0.054534
C       1.510593   -0.418884   -0.114865
C       0.895696   -0.424601    1.236524
C       1.103054   -1.976547    1.325237
C       1.425244   -2.716030    2.584959
N       0.383841   -2.595542    0.178857
C       1.718649   -1.970812   -0.027709
C       2.882366   -2.702512   -0.617551
H       0.649088    1.989849    0.318913
H      -0.342150    1.598798   -1.108059
H      -1.076688    1.591975    0.506303
H       2.206215    0.285015   -0.556068
H       1.017812    0.273965    2.055742
H       0.530213   -2.854840    3.203537
H       1.838498   -3.707166    2.368112
H       2.162583   -2.170716    3.185284
H       0.559325   -3.600012    0.254435
H       2.761137   -2.834162   -1.699660
H       3.817644   -2.155374   -0.452252
H       2.993523   -3.696442   -0.170451
