13

C      -0.130907   -1.292296   -0.110884
C      -0.055312   -0.095944   -0.054666
C       0.010322    1.354711    0.060673
C      -0.504332    1.898829    1.459790
N       0.650490    2.577507    2.039653
C       1.595181    2.462572    1.210648
O       1.397576    1.795551    0.038045
C      -0.687981    1.998567   -1.065779
N      -1.263477    2.517998   -1.921649
H      -0.193424   -2.351395   -0.174648
H      -1.339263    2.591985    1.333517
H      -0.829415    1.072340    2.095509
H       2.599979    2.850761    1.328250
