18

O      -0.119634    1.329207    0.050531
N       0.027699   -0.075174    0.048834
C      -1.098193   -0.649867   -0.044008
C      -2.546528   -0.212833   -0.022396
C      -3.252455   -0.440083   -1.392725
C      -3.299030   -1.966919   -1.130236
C      -1.936172   -2.673734   -1.339883
C      -1.421582   -2.122538    0.024200
C      -2.907844   -1.701033    0.368206
H       0.789986    1.623941    0.165326
H      -2.793597    0.680480    0.548927
H      -4.259414   -0.013422   -1.365316
H      -2.742963   -0.084393   -2.293081
H      -4.192985   -2.501585   -1.451498
H      -2.053269   -3.759771   -1.278888
H      -1.358436   -2.430313   -2.236628
H      -0.779262   -2.760380    0.630336
H      -3.456185   -2.001898    1.256317
