15

N       0.029858    1.436432    0.203420
C      -0.068439    0.049957    0.033195
C      -1.164317   -0.781302   -0.002154
O      -2.517461   -0.765007    0.063129
C      -2.936522   -2.115698   -0.270146
C      -1.696000   -3.035710   -0.064720
N      -0.660385   -2.023688   -0.122861
N       0.684526   -2.025950   -0.126580
N       1.030984   -0.759949   -0.051587
H       1.003317    1.711625    0.137405
H      -0.506408    1.954433   -0.482916
H      -3.778128   -2.375031    0.372839
H      -3.259516   -2.127381   -1.316566
H      -1.695176   -3.541793    0.906126
H      -1.593663   -3.779126   -0.857380
