21

C       0.046164    1.625909    0.006919
C       0.095689    0.093841    0.010070
C       0.887057   -0.485135   -1.207404
C       1.623899   -1.738379   -0.660596
C       1.605699   -1.525131    0.831780
C       0.787555   -0.542412    1.208526
C       0.482612   -0.109322    2.608863
C      -0.030915   -0.790019   -2.363793
O      -0.042217   -0.214017   -3.421378
H       1.052819    2.049937    0.089464
H      -0.398313    1.995274   -0.922700
H      -0.553132    2.009039    0.838592
H      -0.944788   -0.272376   -0.016233
H       1.612420    0.260412   -1.545299
H       1.098085   -2.667364   -0.930288
H       2.632071   -1.828237   -1.079359
H       2.174162   -2.150246    1.512793
H       1.026277   -0.712647    3.340556
H       0.746953    0.942116    2.773377
H      -0.590121   -0.197427    2.825664
H      -0.751828   -1.618889   -2.156201
