19

O      -0.088359    1.463642    0.054707
C      -0.010670    0.046588    0.009687
C       0.694176   -0.583616    1.235358
C       0.046435   -1.969900    1.422471
C      -1.363425   -1.817862    0.866196
C      -2.161112   -0.591736    1.292013
C      -1.409005   -0.546188    0.006886
C      -2.112183   -3.012305    0.433216
O      -1.703145   -4.146277    0.511517
H       0.805375    1.812881   -0.021265
H       0.494203   -0.274318   -0.915286
H       1.779045   -0.639417    1.108960
H       0.504596    0.061478    2.099285
H       0.563817   -2.739085    0.840618
H       0.056715   -2.302762    2.464929
H      -3.241723   -0.667496    1.227231
H      -1.805922   -0.030027    2.148388
H      -1.970262   -0.530311   -0.920681
H      -3.119389   -2.792291    0.006005
