14

C      -0.034963    1.430161    0.140542
N       0.020531   -0.009786   -0.041711
C       0.630183   -0.588774   -1.089313
N       1.164891    0.056195   -2.062516
C       1.735905   -0.662866   -3.115455
O       2.219805   -0.127301   -4.076779
N       1.739591   -2.101105   -3.021224
C       1.192690   -2.622053   -2.012441
O       0.588155   -1.957209   -0.978167
H       0.794809    1.795346    0.756694
H       0.026644    1.903824   -0.839119
H      -0.979911    1.698452    0.618519
H      -0.290320   -0.621817    0.694589
H       1.137464   -3.694891   -1.847470
