17

C       0.501294    0.877474    0.120009
C      -0.663634   -0.070419    0.127256
N      -1.641157   -0.151813    0.912681
O      -0.702263   -0.937885   -0.976546
C       0.260954   -1.880470   -1.111438
O       1.159447   -2.061487   -0.325683
C       0.053558   -2.675682   -2.352325
C       1.279710   -2.951881   -3.167557
N       0.659156   -4.014479   -2.389541
H       1.432114    0.318564    0.241669
H       0.547559    1.406238   -0.837636
H       0.407636    1.606551    0.926672
H      -1.569343    0.555948    1.643345
H      -0.911465   -2.569428   -2.833349
H       1.174944   -3.037483   -4.244959
H       2.212941   -2.522430   -2.814988
H       1.181347   -4.136745   -1.522044
