18

C       0.148878    1.529537    0.153891
C       1.247282    0.592850   -0.261935
C      -0.141609    0.053332   -0.001829
C      -0.461235   -0.768085    1.213035
C      -0.749898   -2.242063    1.137879
O      -0.244971   -2.922311   -0.005137
C       1.108021   -2.826646    0.092270
N       1.611293   -2.244458    1.104454
C       0.490349   -1.768281    1.879073
H       0.181239    1.927791    1.163006
H      -0.264127    2.212418   -0.580368
H       1.595439    0.626846   -1.288614
H       2.014732    0.348651    0.462349
H      -0.710640   -0.221668   -0.885816
H      -1.099192   -0.277876    1.945769
H      -1.642430   -2.703909    1.539740
H       1.655195   -3.277048   -0.726372
H       0.613607   -1.755936    2.954956
