17

O      -0.639304    0.950503    1.008600
C       0.174722    0.862473    0.127768
C       1.380719    1.788122   -0.005242
N       2.580578    1.012984   -0.298637
C       3.499561    1.779438   -1.164584
C       2.782215    3.113899   -1.432249
C       1.288454    2.768722   -1.208174
C       0.699020    2.157767   -2.403627
N       0.243905    1.697142   -3.361035
H       0.130886    0.076572   -0.654888
H       1.432975    2.391662    0.913214
H       3.023022    0.658098    0.537063
H       4.473828    1.937684   -0.689937
H       3.675412    1.234496   -2.099611
H       3.070829    3.866858   -0.693238
H       2.975246    3.517987   -2.427317
H       0.691196    3.645108   -0.945375
