20

C       0.127473    1.436887    0.049138
C      -0.067391   -0.046882   -0.242168
N      -1.387423   -0.486179    0.217721
C      -1.717561   -1.826561    0.132445
C      -2.887073   -2.485344   -0.115384
C      -2.599628   -3.889047    0.048394
C      -3.557382   -5.027395   -0.114174
C      -1.284535   -3.964060    0.367239
O      -0.728521   -2.704194    0.425972
H       1.120426    1.762757   -0.273216
H      -0.610016    2.047174   -0.485512
H       0.022599    1.639065    1.118829
H       0.079090   -0.244817   -1.316869
H       0.680926   -0.637240    0.292325
H      -2.136050    0.095915   -0.133431
H      -3.832505   -2.039800   -0.383187
H      -3.987859   -5.049009   -1.122189
H      -3.063776   -5.987949    0.058273
H      -4.394624   -4.950839    0.589321
H      -0.608336   -4.778593    0.563543
