18

C      -0.033023    1.506014    0.214740
C       0.545425    0.105069    0.157806
O      -0.014157   -0.653150    1.248274
C       0.453057   -1.924192    1.361883
C       1.456377   -2.417554    2.162858
O       2.255198   -1.703333    3.010791
C       1.527298   -3.821030    1.951566
C       0.559181   -4.140250    1.025359
N      -0.087082   -2.986418    0.660736
H       0.219421    1.990206    1.162472
H       0.367418    2.113420   -0.602241
H      -1.122636    1.477627    0.125015
H       0.297910   -0.386594   -0.792860
H       1.639352    0.116423    0.249402
H       1.877812   -0.819256    3.082319
H       2.214146   -4.502957    2.426756
H       0.278853   -5.090996    0.602966
H      -0.904255   -2.923508    0.079994
