18

C       0.042030    1.428807   -0.029044
O       0.022783    0.016417    0.011586
C      -1.203873   -0.570339    0.000557
C      -1.387273   -1.918137   -0.004046
C      -0.467432   -3.078780    0.001002
O      -2.755418   -2.165656   -0.007975
C      -3.389283   -0.976988   -0.005176
N      -4.774709   -1.039998   -0.088354
C      -2.501558    0.058529    0.001962
H       1.092911    1.724614   -0.028987
H      -0.439595    1.815326   -0.937212
H      -0.452724    1.866917    0.848336
H      -0.594209   -3.710624    0.889783
H      -0.602256   -3.721653   -0.878304
H       0.560832   -2.708891   -0.005377
H      -5.145588   -1.876297    0.345426
H      -5.226336   -0.216361    0.284707
H      -2.735496    1.109508    0.003539
