23

C       0.074896    1.524798    0.278187
C      -0.005670    0.006588    0.101798
C      -1.438088   -0.497782   -0.111237
C      -1.509597   -2.009264   -0.243306
O      -1.075137   -2.692571    0.964876
C      -2.323924   -3.406854    1.084140
C      -2.872918   -2.700384   -0.149049
C      -4.238880   -2.125518   -0.364921
C      -3.732009   -3.249356   -1.242864
H       1.107323    1.853770    0.432649
H      -0.313398    2.049746   -0.602176
H      -0.511764    1.854309    1.142993
H       0.616009   -0.299007   -0.750366
H       0.411198   -0.495632    0.981843
H      -2.073556   -0.184810    0.726839
H      -1.862941   -0.045665   -1.019140
H      -0.906303   -2.341956   -1.102505
H      -2.185941   -4.492598    0.988607
H      -2.830998   -3.193378    2.034527
H      -5.007901   -2.353329    0.366834
H      -4.319024   -1.133945   -0.798541
H      -3.464398   -3.014396   -2.268652
H      -4.159650   -4.238466   -1.110685
