20

C      -0.058543    1.575409    0.276533
C       0.029211    0.053534    0.118399
C      -1.384788   -0.609615    0.048451
N      -1.377068   -2.068616   -0.064459
C      -2.201592   -0.215308    1.203637
N      -2.814372    0.100911    2.130822
N       0.756548   -0.461564   -1.050026
C       1.015751    0.373900   -2.219784
C       2.121583   -0.035142   -1.308921
H       0.928854    2.044669    0.232177
H      -0.687179    2.027120   -0.497821
H      -0.497363    1.824557    1.245537
H       0.537622   -0.367093    0.995462
H      -1.878344   -0.209383   -0.848744
H      -0.659924   -2.293746   -0.751409
H      -1.068275   -2.472949    0.816115
H       0.881450   -0.115827   -3.179974
H       0.723210    1.419921   -2.199958
H       2.553764    0.740480   -0.679460
H       2.813964   -0.823245   -1.592466
