20

O      -0.077633    1.387037    0.019287
C       0.034549    0.003971    0.027943
C       0.618125   -0.963133    1.082412
N       0.056188   -1.913438    0.021961
C      -1.168493   -0.951088   -0.005534
C      -2.062217   -1.018482   -1.237376
C      -1.283833   -1.576419   -2.434898
C       0.141428   -1.010757   -2.434937
C       0.686153   -0.944395   -1.014475
H       0.806659    1.770062    0.014803
H       1.705331   -1.026649    1.186302
H       0.111873   -1.040104    2.048234
H      -1.740146   -1.009782    0.925665
H      -2.941526   -1.637158   -1.031120
H      -2.431302   -0.005450   -1.443738
H      -1.223507   -2.664585   -2.332354
H      -1.797148   -1.369338   -3.378624
H       0.796290   -1.621793   -3.064772
H       0.160763    0.004792   -2.853160
H       1.780217   -0.992210   -0.985592
