16

N       0.066866    1.234379    0.376210
C       0.081111    0.023184   -0.226079
O       1.005737   -0.444082   -0.857192
C      -1.237219   -0.767881   -0.033990
C      -1.040467   -2.075790    0.785347
C      -1.833646   -1.346735    1.884377
O      -2.070975   -0.204249    1.022166
C      -1.938037   -0.876910   -1.300945
C      -2.527134   -0.964952   -2.344378
H       0.876047    1.828337    0.308158
H      -0.733105    1.504631    0.924432
H      -1.545604   -2.937764    0.352013
H      -0.001181   -2.322849    0.997703
H      -2.774125   -1.812290    2.193883
H      -1.258468   -1.066025    2.774007
H      -3.040502   -1.040873   -3.271249
