16

O      -0.120721    0.258667    0.817507
C      -0.075379    1.249685    0.119321
C      -1.302044    1.789599   -0.533839
C      -1.669828    3.079122   -0.513544
C      -0.925541    4.221528    0.021938
C       0.398725    4.334083    0.188794
C       1.405681    3.314573   -0.193193
C       2.053918    2.395982    0.820163
N       1.119454    1.899662   -0.159682
H      -1.992708    1.031212   -0.887767
H      -2.663477    3.320551   -0.885354
H      -1.538471    5.079406    0.288674
H       0.803020    5.268943    0.570914
H       2.039303    3.612396   -1.031558
H       3.092621    2.103371    0.693701
H       1.705490    2.451592    1.848007
