13

C       0.082979    1.452876   -0.017420
C      -0.080238   -0.019866   -0.024299
N      -1.128857   -0.728263   -0.290821
C      -0.691007   -2.043381   -0.138606
C       0.616615   -2.016741    0.215505
O       1.171945   -3.193635    0.396076
N       0.108522   -4.139760    0.131576
C      -0.962626   -3.433902   -0.176984
O       1.077246   -0.766057    0.308718
H       0.849252    1.766872   -0.733534
H      -0.869314    1.909721   -0.287228
H       0.386839    1.810141    0.971827
H      -1.868141   -3.976399   -0.408890
