26

C       3.400633    1.898970   -8.439682
C       3.851513    1.597965   -7.007878
C       3.324953    0.259717   -6.479082
C       3.772114   -0.046101   -5.042468
C       3.166839   -1.336506   -4.523133
C       3.834655   -2.673880   -4.638310
C       5.194109   -2.879902   -5.273231
N       3.639088   -2.043407   -3.328802
C       4.774645   -1.542127   -2.570071
H       3.746752    1.125810   -9.134765
H       2.307869    1.939180   -8.510274
H       3.791902    2.859578   -8.789131
H       4.948758    1.599460   -6.960963
H       3.520082    2.405298   -6.341327
H       2.227021    0.258262   -6.525007
H       3.654795   -0.551467   -7.142036
H       4.865317   -0.068016   -5.002725
H       3.461905    0.778962   -4.385737
H       2.077005   -1.330513   -4.591134
H       3.179950   -3.535104   -4.778956
H       5.838868   -2.000925   -5.221534
H       5.723709   -3.709315   -4.790928
H       5.074069   -3.140179   -6.330501
H       5.591257   -1.096559   -3.155617
H       4.418174   -0.783640   -1.865210
H       5.195655   -2.366276   -1.984520
