18

C      -0.087493    1.534253    0.160500
C      -0.019087    0.010526    0.000974
C      -1.419969   -0.612582    0.006556
C       0.730865   -0.395372   -1.291241
C       2.167885   -0.005833   -1.289072
N       2.720601    0.886184   -2.061684
O       4.025648    0.900966   -1.698133
N       4.216418   -0.023245   -0.675263
N       3.108932   -0.562512   -0.432306
H       0.906664    1.991031    0.166585
H      -0.656407    1.987421   -0.659904
H      -0.583731    1.802576    1.098129
H       0.544736   -0.402529    0.847258
H      -2.017068   -0.243911   -0.835926
H      -1.374964   -1.704135   -0.066130
H      -1.954253   -0.358777    0.927168
H       0.675787   -1.483146   -1.412630
H       0.252166    0.058682   -2.164521
