17

O       0.041684    1.409462    0.026127
C       0.013136   -0.004949   -0.024421
C      -1.446689   -0.541773   -0.120913
N      -1.609929   -0.686176   -1.557441
C      -2.619850   -0.884909   -2.468636
C      -1.974911   -1.003151   -3.678265
N      -0.606042   -0.894277   -3.532651
C      -0.431713   -0.710176   -2.244834
C       0.718623   -0.559208   -1.295761
H      -0.287815    1.746245   -0.815510
H       0.493182   -0.336563    0.898177
H      -1.566883   -1.506038    0.387892
H      -2.148542    0.176254    0.310008
H      -3.660446   -0.908446   -2.191951
H      -2.423143   -1.152314   -4.649279
H       1.495502    0.128070   -1.637653
H       1.197042   -1.525909   -1.094974
