17

C       0.118732    1.578994    0.140759
C      -0.086785    0.062664   -0.046278
O      -1.458733   -0.246734   -0.088294
C       0.678109   -0.468454   -1.272125
C       2.078282   -0.832967   -0.767743
O       3.052397   -0.996699   -1.451286
C       2.037106   -0.962054    0.764478
C       0.588498   -0.688586    1.117723
O      -0.020284   -1.050365    2.093897
H       1.177381    1.860487    0.135094
H      -0.380895    2.103665   -0.678278
H      -0.324786    1.907025    1.084999
H      -1.694793   -0.526470    0.809146
H       0.193621   -1.389895   -1.619718
H       0.727117    0.221058   -2.117617
H       2.379377   -1.938731    1.116517
H       2.700184   -0.211235    1.211473
