25

C       0.033228    1.585571    0.011183
C       0.027445    0.055349    0.044516
C      -1.380345   -0.544130   -0.034054
C      -1.403552   -2.074139    0.068667
O      -0.814793   -2.531093    1.288582
C      -2.800903   -2.653653   -0.109219
C      -3.477779   -2.590257   -1.509682
C      -4.014254   -4.028373   -1.274437
C      -2.959600   -4.199176   -0.147606
H       1.052231    1.981806    0.063816
H      -0.424522    1.966750   -0.908844
H      -0.528783    2.003441    0.854309
H       0.628337   -0.332490   -0.788847
H       0.511372   -0.304401    0.958848
H      -2.004702   -0.129287    0.772861
H      -1.862782   -0.243213   -0.973735
H      -0.752707   -2.491799   -0.712467
H      -1.369451   -2.217074    2.011850
H      -3.468306   -2.221540    0.649828
H      -4.204666   -1.795107   -1.691888
H      -2.729005   -2.563798   -2.308876
H      -5.034374   -4.020002   -0.879550
H      -3.977301   -4.725339   -2.114980
H      -2.044580   -4.677836   -0.510159
H      -3.268745   -4.703154    0.770593
