21

C       0.008860    1.541328   -0.051899
C       0.063721    0.014589   -0.011001
C       0.702510   -0.540176    1.295904
C      -0.064379   -0.150447    2.486441
C      -0.701787    0.179407    3.452868
C      -1.465500    0.566232    4.630911
C       0.869928   -1.996576    1.219695
C       1.003369   -3.189132    1.128149
C       1.166117   -4.632856    1.031816
H       1.013115    1.976223    0.007344
H      -0.449111    1.887312   -0.983355
H      -0.576808    1.936166    0.783140
H      -0.941543   -0.408512   -0.106059
H       0.651889   -0.369204   -0.851257
H       1.703615   -0.088626    1.378675
H      -1.462867   -0.230142    5.383397
H      -1.049439    1.465255    5.099046
H      -2.510220    0.778138    4.377807
H       2.218162   -4.908018    0.897497
H       0.806296   -5.133594    1.937511
H       0.606344   -5.041983    0.183404
