21

C      -0.149083    1.548208    0.106300
C       0.013841    0.048123    0.004830
C       1.346549   -0.567043   -0.321435
O       2.396328    0.336399   -0.470108
C       3.668931   -0.110176   -0.029536
C       3.673256   -0.777974    1.363505
C       2.761700   -0.103482    2.361111
C       1.435211   -0.103195    2.218927
C       0.758222   -0.758517    1.065501
H       0.750056    2.015586    0.510331
H      -0.337837    1.984413   -0.880420
H      -0.994915    1.805931    0.752936
H      -0.839465   -0.466150   -0.430096
H       1.381902   -1.422538   -0.998199
H       4.106789   -0.807807   -0.761049
H       4.288249    0.792203   -0.019995
H       3.373098   -1.826516    1.254857
H       4.707979   -0.791627    1.721210
H       3.213950    0.389177    3.217949
H       0.807599    0.371498    2.970844
H       0.328184   -1.736832    1.279435
