16

O       0.096078    1.470608   -0.020666
C       0.025937    0.054531    0.001260
C       0.589937   -0.563936    1.297807
O      -0.535744   -0.844367    2.149594
C      -1.689330   -0.915134    1.425104
O      -2.738652   -1.229624    1.902355
C      -1.392739   -0.490556    0.009042
C      -2.475521    0.013825   -0.873026
N      -1.961270   -1.344303   -1.057940
H      -0.471302    1.816462    0.678026
H       0.598950   -0.270806   -0.871160
H       1.125774   -1.499780    1.104487
H       1.251285    0.131882    1.817327
H      -3.481641    0.061080   -0.467657
H      -2.205624    0.789290   -1.584280
H      -1.310434   -1.361551   -1.841296
