20

C      -0.007549    1.323403    0.090916
O      -0.026901   -0.074182   -0.088885
C      -1.311269   -0.642712    0.018878
C      -1.293038   -2.135609   -0.345916
C      -0.325427   -2.664017    0.730113
N      -1.397006   -2.344797    1.738192
C      -2.430358   -2.619937    0.642749
C      -3.259161   -1.438318    1.150574
C      -1.848999   -0.892578    1.456864
H       1.023879    1.653519   -0.053931
H      -0.650410    1.835364   -0.642474
H      -0.333424    1.620352    1.098658
H      -2.023736   -0.057780   -0.581307
H      -1.239764   -2.403964   -1.401553
H      -0.196249   -3.749884    0.706372
H       0.635659   -2.165469    0.859619
H      -2.807240   -3.638148    0.535221
H      -3.897235   -0.876833    0.464162
H      -3.808994   -1.714386    2.052198
H      -1.646320   -0.154790    2.231802
