16

O       0.004864    0.063190    0.696630
C       0.013885    1.150675    0.193370
O      -1.135246    1.823796   -0.165694
C      -1.546396    2.876303    0.700627
O      -0.764646    4.030199    0.632741
C       0.545424    3.865167    1.161546
C       1.460749    3.191654    0.161459
C       2.325728    2.033087    0.587330
N       1.150390    1.830107   -0.224417
H      -2.544137    3.154709    0.362192
H      -1.576431    2.491980    1.733220
H       0.914621    4.865953    1.402547
H       0.503374    3.279934    2.094233
H       1.798540    3.822648   -0.657839
H       3.278780    1.863370    0.095253
H       2.277827    1.713357    1.625683
