12

O      -0.017712   -0.087955    0.003160
C      -0.025486    1.121971    0.009490
N      -1.202196    1.868300    0.029288
C      -1.233249    3.239029    0.036878
C      -0.108412    3.979150    0.025615
C       1.193551    3.323000    0.004606
O       2.276436    3.868034   -0.006988
N       1.105752    1.913981   -0.001496
H      -2.049344    1.322727    0.037819
H      -2.223934    3.677947    0.052537
H      -0.133595    5.058543    0.031642
H       1.986138    1.416293   -0.015914
