14

O       0.011224    1.382563    0.230144
C       0.023652    0.006776    0.045519
C      -1.333379   -0.714773    0.045632
O      -2.064694   -0.149558   -1.054605
C      -1.140153   -1.204834   -1.327042
C       0.258461   -0.568943   -1.439390
C       0.477135    0.385948   -2.502241
C       0.646358    1.207067   -3.364236
H      -0.644168    1.738319   -0.384410
H       0.746144   -0.416081    0.746677
H      -1.909967   -1.113315    0.872019
H      -1.520210   -2.089878   -1.822266
H       1.045609   -1.329314   -1.418776
H       0.799836    1.922594   -4.133733
