16

N      -0.099803    1.253405    0.087248
C      -0.061946    0.009492   -0.104917
O      -1.107799   -0.760751    0.283525
C      -0.958009   -2.132554    0.181649
C      -0.266873   -3.108036    1.156795
C      -0.876098   -4.028306    0.075568
C      -2.126325   -3.112480   -0.121575
O      -1.989514   -3.035616   -1.570196
C      -0.621249   -3.012572   -1.081109
H       0.744865    1.688211   -0.278468
H       0.743209   -0.561965   -0.583019
H       0.824305   -3.066322    1.206078
H      -0.699145   -3.178835    2.157612
H      -0.853003   -5.110638   -0.010098
H      -3.120136   -3.167933    0.319324
H       0.198151   -2.956496   -1.796813
