20

O      -0.082790    1.428320   -0.064408
C       0.001049    0.009598   -0.061129
C      -1.413630   -0.543984    0.038100
C      -2.322751   -0.165385   -1.154940
C      -3.339630   -1.326935   -1.327212
O      -3.746984   -1.537328   -2.666485
C      -2.639308   -2.527849   -0.710683
N      -1.272583   -2.682356   -1.268632
C      -1.472015   -2.065236    0.067525
H       0.798122    1.781733   -0.217090
H       0.469017   -0.370143   -0.982056
H       0.602915   -0.348946    0.790969
H      -1.856300   -0.174221    0.972478
H      -2.813022    0.799296   -1.019198
H      -1.723888   -0.097352   -2.068126
H      -4.261842   -1.122445   -0.771608
H      -2.958380   -1.834152   -3.137495
H      -3.204636   -3.416675   -0.450727
H      -0.972570   -3.645873   -1.144758
H      -1.118263   -2.605129    0.940911
