18

C      -0.019224    1.577781    0.007956
C       0.141546    0.059890   -0.072743
N       0.898509   -0.294591   -1.278924
C       1.477639   -1.420543   -1.277051
N       1.488035   -2.334999   -0.225265
C       1.053694   -2.008838    1.050636
N       0.991070   -2.785462    2.059713
C       0.739667   -0.529602    1.212114
O       1.957967    0.152044    1.494612
H       0.954006    2.053994    0.140069
H      -0.467496    1.947915   -0.917014
H      -0.661038    1.858881    0.849097
H      -0.857663   -0.391983   -0.182068
H       2.019729   -1.762161   -2.158380
H       1.913256   -3.238095   -0.373350
H       1.299672   -3.734661    1.832825
H       0.028950   -0.428496    2.041385
H       2.311560   -0.229176    2.305857
