18

C       0.132490    1.407539   -0.261322
C      -0.091237   -0.068571   -0.032581
N       0.984941   -1.023126   -0.235575
C       2.215267   -0.813935   -0.822912
O       2.396859   -0.193278   -1.842772
C       0.560170   -0.789437    1.113062
C       1.341787   -0.216889    2.298769
O       0.719957   -1.176111    3.178813
C       0.016491   -1.823618    2.094915
H       1.077772    1.743522    0.173758
H       0.164192    1.630528   -1.330518
H      -0.681031    1.982335    0.192516
H      -1.063727   -0.442056   -0.353352
H       3.022492   -1.350885   -0.287271
H       2.431500   -0.340265    2.257036
H       1.107263    0.817821    2.577240
H      -1.069033   -1.828225    2.249050
H       0.367742   -2.848704    1.922859
