15

F       0.483934    0.114074    0.117384
C      -0.154064    1.295426    0.099706
F       0.729236    2.214497   -0.336749
F      -1.130099    1.214747   -0.815094
C      -0.701428    1.658415    1.462590
C       0.406765    1.741342    2.524132
N      -0.096069    2.159240    3.822423
C      -0.786654    1.312128    4.630273
O      -1.051853    0.162162    4.349012
H      -1.220560    2.616427    1.366720
H      -1.429516    0.898201    1.753755
H       0.871026    0.757724    2.632328
H       1.177341    2.448999    2.210035
H       0.050974    3.107393    4.127245
H      -1.080703    1.790261    5.585351
