18

C      -0.042450   -1.242685   -0.011845
C      -0.025630   -0.042532    0.036204
C       0.000857    1.414183    0.073194
C       1.411578    2.005818   -0.031543
C       1.426904    3.529172   -0.116561
C       2.880022    4.014521   -0.068771
N       3.664806    3.375612    0.983861
C       3.232806    2.292275    1.469628
O       2.134653    1.569474    1.132929
H      -0.058112   -2.303816   -0.044917
H      -0.598261    1.816343   -0.753577
H      -0.457337    1.776804    1.001545
H       1.915319    1.580332   -0.909821
H       0.926887    3.860004   -1.032873
H       0.867518    3.939804    0.732860
H       3.376839    3.834666   -1.031662
H       2.916079    5.097339    0.092408
H       3.755827    1.799044    2.287001
