27

C       0.131191    1.573901    0.091452
C      -0.022207    0.053453   -0.028242
C      -1.467899   -0.491977    0.000883
C      -2.207126   -0.010519    1.261835
C      -2.273180   -0.099940   -1.288772
C      -2.542344   -1.410271   -2.052559
C      -2.599728   -2.480899   -0.951153
C      -2.518981   -3.922582   -1.447829
C      -1.442134   -2.050256   -0.035287
H       1.181766    1.863276   -0.012574
H      -0.432901    2.102018   -0.684808
H      -0.215269    1.943248    1.061366
H       0.449591   -0.280979   -0.961932
H       0.544917   -0.425673    0.781678
H      -2.388871    1.068587    1.238291
H      -3.181558   -0.502867    1.352948
H      -1.634432   -0.235750    2.169331
H      -3.222342    0.369477   -1.007246
H      -1.737899    0.630675   -1.902576
H      -3.448322   -1.369483   -2.665747
H      -1.707689   -1.638500   -2.729232
H      -3.544527   -2.353350   -0.402484
H      -1.591622   -4.090949   -2.008560
H      -2.538036   -4.635598   -0.616443
H      -3.356724   -4.164328   -2.111064
H      -0.497552   -2.397189   -0.476160
H      -1.502561   -2.487397    0.967214
