15

O      -0.026936    0.050731    0.399092
C      -0.078892    1.212603    0.109755
C      -1.192615    2.237954   -0.189951
C      -0.058177    3.295706   -0.053245
C       0.153113    4.010639    1.256498
C       1.219340    3.526433    1.895914
C       1.879587    2.393879    1.128104
N       0.933375    2.183273    0.026094
H      -1.657078    2.157951   -1.174898
H      -1.965939    2.267435    0.579817
H       0.066089    3.953925   -0.920695
H      -0.461855    4.838935    1.586388
H       1.612818    3.891915    2.837158
H       2.879544    2.669676    0.767965
H       1.979810    1.468638    1.705891
