20

C      -0.250580    1.527622    0.084786
C       0.041059    0.043548   -0.009407
N       1.022066   -0.443244   -1.063580
C       2.317319    0.329196   -1.000340
C       2.739603   -0.404074    0.279911
O       2.034634    0.106805    1.436391
C       0.839136   -0.664500    1.114371
C       0.173216   -1.227053    2.338893
C       1.599905   -1.403147   -0.016038
H       0.602169    2.075000    0.493059
H      -0.493292    1.934017   -0.902966
H      -1.109540    1.705700    0.739960
H      -0.887119   -0.512445   -0.194538
H       2.932668    0.043315   -1.860693
H       2.234770    1.417974   -0.963530
H       3.788467   -0.620475    0.496488
H      -0.168535   -0.413637    2.988747
H      -0.695068   -1.834175    2.064167
H       0.869070   -1.846255    2.912376
H       1.654158   -2.471602   -0.215942
