19

C      -0.024494    1.501991   -0.021601
C      -0.066215   -0.011003   -0.206597
N      -1.368896   -0.536845    0.176721
C      -1.652354   -1.872255    0.054505
N      -2.864243   -2.397361   -0.008163
C      -2.614468   -3.743907   -0.064755
C      -3.704214   -4.759229   -0.142889
N      -1.338084   -4.079837   -0.048255
N      -0.721935   -2.853439    0.024934
H       0.962353    1.891529   -0.284218
H      -0.760067    1.995881   -0.666078
H      -0.241568    1.772377    1.015557
H       0.189728   -0.271398   -1.246712
H       0.696208   -0.472483    0.434952
H      -2.162078    0.037386   -0.071219
H      -4.324083   -4.594666   -1.030114
H      -3.279580   -5.763510   -0.186835
H      -4.362550   -4.688115    0.728907
H       0.279982   -2.797836    0.067417
