16

C      -0.020820    1.505219   -0.016574
N       1.299395    2.163601   -0.046931
C       2.239012    1.447117   -0.816991
C       2.089352    0.093536   -1.091944
N       3.169275   -0.253324   -1.841079
N       4.006957    0.778504   -2.064167
C       3.448423    1.816610   -1.435761
C       1.024983   -0.690630   -0.514457
C       0.023286   -0.011210    0.067987
H      -0.588936    1.924912    0.818001
H      -0.560511    1.792045   -0.933772
H       1.644126    2.352567    0.888779
H       3.366676   -1.138817   -2.275469
H       3.935356    2.780266   -1.452659
H       1.073724   -1.774664   -0.503577
H      -0.786247   -0.526891    0.574351
