17

C      -0.042216    1.537368   -0.004777
C       1.446346    1.921933   -0.034728
N       2.200193    1.512350    1.167468
C       2.297029    0.690815   -0.077359
C       1.353673   -0.448676   -0.061348
C       1.320424   -1.819352   -0.059811
N      -0.007278   -2.179888    0.022587
C      -0.814770   -1.060984    0.077318
C       0.013889    0.029165    0.019125
H      -0.539071    1.967789    0.871813
H      -0.554599    1.925485   -0.894106
H       1.743042    2.833956   -0.542941
H       3.033479    2.094830    1.235956
H       3.242436    0.658893   -0.608054
H       2.095274   -2.567654   -0.102201
H      -0.343039   -3.126756    0.023612
H      -1.886791   -1.159989    0.138449
