18

O      -0.050490   -0.062538   -0.060249
C      -0.027587    1.154409   -0.059481
N      -1.164882    1.914115   -0.152931
C      -1.299935    3.365777   -0.018608
C      -0.117748    3.981592    0.694267
C       1.038434    3.340406    0.648209
C       2.356664    3.265674    1.390076
C       2.328150    1.719923    1.110670
C       1.237866    1.982125    0.025294
H      -2.012419    1.373467   -0.243081
H      -1.451924    3.834762   -1.004661
H      -2.213730    3.565086    0.554505
H      -0.279931    4.894688    1.257690
H       3.176456    3.756346    0.853802
H       2.371287    3.600363    2.430179
H       3.257649    1.257704    0.776245
H       1.927017    1.153908    1.953406
H       1.684604    2.033294   -0.975936
