21

C       0.485109    1.345282   -0.313489
C       0.052233   -0.103695   -0.067624
O       0.430081   -0.976162   -1.123260
C      -0.320640   -0.857024   -2.291479
C       0.188471   -0.020860   -3.440168
C       0.235443   -1.535062   -3.500720
C       0.662508   -0.629841    1.217955
C       1.216354   -1.979593    1.354429
O       2.072835   -0.837710    1.228383
H       1.572479    1.390148   -0.417886
H       0.022641    1.747011   -1.217395
H       0.190245    1.977646    0.530452
H      -1.044544   -0.138639    0.055541
H      -1.399132   -0.896015   -2.130302
H      -0.528238    0.508129   -4.059436
H       1.131719    0.491381   -3.291587
H       1.206967   -2.001346   -3.383176
H      -0.445650   -2.058852   -4.161650
H       0.277614   -0.133726    2.111596
H       1.223416   -2.461002    2.331654
H       1.202440   -2.640038    0.492631
