18

C      -0.097576    1.563317   -0.095013
C       0.009508    0.048361   -0.057838
C       0.699549   -0.662277   -1.230585
N       2.073995   -0.119659   -1.294263
C       1.764367   -1.217998   -0.352198
C       1.140200   -0.581873    0.897077
O       2.006200    0.310854    1.561937
C       0.585599   -1.574108    1.811548
C       0.123070   -2.360946    2.595177
H       0.869930    2.008479   -0.331504
H      -0.824789    1.877583   -0.851827
H      -0.433301    1.956100    0.870739
H      -0.952465   -0.416605    0.171012
H       0.229875   -1.109290   -2.097575
H       2.537877   -0.548706   -2.094306
H       2.293533   -2.161726   -0.388880
H       1.622022    0.509550    2.422508
H      -0.280211   -3.063401    3.282250
