20

C       0.060737    1.494432    0.107755
C      -0.038348    0.010092   -0.054916
C      -0.981443   -0.847477    0.738912
C      -1.060479   -2.228530    0.112143
C       0.431821   -1.992745   -0.196968
N       0.504483   -0.953027    0.974769
C       0.467474   -0.841805   -1.191699
C       0.212786   -0.809248   -2.666414
C       1.594293   -0.501141   -2.113516
H       1.071146    1.849164   -0.120535
H      -0.643267    2.012473   -0.553595
H      -0.169678    1.782125    1.137927
H      -1.635645   -0.421954    1.493021
H      -1.196010   -2.995492    0.879284
H      -1.742140   -2.408326   -0.725645
H       1.152496   -2.808003   -0.238971
H       0.069835   -1.752274   -3.185019
H      -0.366522    0.013275   -3.073764
H       1.939662    0.527044   -2.154020
H       2.378589   -1.236962   -2.260676
