20

C       0.142816    1.379077   -0.183048
N       0.101207   -0.071143   -0.088428
C       0.615614   -0.661311    0.897700
O       1.249192   -0.086558    1.953567
C       1.849152   -1.110729    2.778983
C       1.853757   -2.385955    1.926961
C       0.629278   -2.181299    1.017758
C      -0.674676   -2.679460    1.662854
O       0.801905   -2.773471   -0.250357
H       0.857948    1.844028    0.505024
H       0.397346    1.663399   -1.208995
H      -0.852338    1.789975    0.025645
H       2.845704   -0.764578    3.061601
H       1.246758   -1.218126    3.688200
H       2.746178   -2.432881    1.297393
H       1.802366   -3.293543    2.531899
H      -0.820694   -2.271768    2.669270
H      -1.527047   -2.383351    1.045874
H      -0.649710   -3.770985    1.727195
H       0.428876   -2.135240   -0.877915
