22

C      -0.970228    1.183348   -0.234111
C      -0.252356   -0.162176   -0.137183
C       0.547392   -0.522766   -1.411428
O       0.859512   -1.916703   -1.561715
C       2.159459   -1.752683   -0.940102
C       1.850463   -0.273396   -0.604487
C       2.893897    0.787705   -0.868942
N       1.022921   -0.189234    0.621387
C       1.303363    0.710707    1.712277
H      -0.321706    1.961827   -0.651368
H      -1.845877    1.090028   -0.885451
H      -1.317699    1.524686    0.745974
H      -0.954166   -0.941158    0.187157
H       0.262853   -0.041987   -2.351857
H       2.298229   -2.412499   -0.077762
H       2.965458   -1.907075   -1.671228
H       3.324660    0.659576   -1.866734
H       2.473966    1.796463   -0.808073
H       3.714036    0.723623   -0.144172
H       1.272228    1.786109    1.461436
H       0.579328    0.539552    2.517058
H       2.295717    0.494685    2.122946
