21

C      -0.002457    1.515628   -0.087069
C       0.005021   -0.007002    0.006547
O       0.725354   -0.469241    1.146932
C      -1.407380   -0.601384    0.026063
O      -2.112162   -0.162796   -1.136155
C      -3.153720   -1.096049   -1.416635
C      -2.636127   -2.441525   -0.940266
C      -1.221950   -2.771760   -1.341062
C      -1.492336   -2.119002   -0.008254
H       1.021117    1.900372   -0.093456
H      -0.516779    1.842884   -0.993517
H      -0.529029    1.952941    0.771783
H       0.538109   -0.425401   -0.854204
H       0.389171    0.005672    1.915199
H      -1.917957   -0.239007    0.939893
H      -4.076835   -0.830657   -0.876201
H      -3.355908   -1.040837   -2.491760
H      -3.345835   -3.232991   -0.730931
H      -0.928703   -3.815261   -1.328161
H      -0.761177   -2.181622   -2.127215
H      -1.317156   -2.668637    0.907021
