18

C      -0.012861    1.576621    0.092555
C       1.437359    1.962801   -0.128731
C       2.142102    0.888937   -0.893196
C       1.287819   -0.379344   -0.845332
C       1.809220   -1.191955    0.379467
C       0.713820   -0.579350    1.238916
C       2.130550   -0.031919    1.275266
N       2.506328    1.160743    0.509172
C       0.034795    0.051034    0.025443
H      -0.409101    1.929802    1.052213
H      -0.626946    2.014664   -0.703406
H       1.690616    3.014182   -0.242076
H       2.886126    1.066231   -1.664699
H       1.104341   -0.889745   -1.788631
H       2.274554   -2.168351    0.403355
H       0.223272   -0.969170    2.124115
H       2.705216   -0.189029    2.180127
H      -0.897816   -0.436511   -0.260190
