17

O       0.233908    1.412379   -0.026722
C       0.053414    0.010672    0.056222
C       0.600479   -0.703502   -1.201361
C       0.048738   -0.122084   -2.417720
C      -0.428888    0.424451   -3.377433
C       0.836356   -0.431275    1.312378
O       2.181318    0.007244    1.222824
C       0.175514    0.034809    2.537524
C      -0.364056    0.412322    3.542455
H      -0.037739    1.691040   -0.910275
H      -1.008809   -0.241633    0.184459
H       1.692486   -0.613649   -1.197697
H       0.359674   -1.772074   -1.147005
H      -0.839320    0.873154   -4.248342
H       0.876617   -1.527166    1.327855
H       2.126640    0.952110    1.023472
H      -0.836711    0.747757    4.432424
