23

C      -0.032626    1.537161    0.049086
C      -0.017736   -0.001372   -0.002159
C      -1.463675   -0.528534    0.069057
C       0.687547   -0.466508   -1.299534
C       1.008017   -1.966504   -1.310327
C       1.972971   -2.362984   -0.179003
C       1.684741   -1.649787    1.129897
O       2.154957   -0.294897    1.225045
C       0.743681   -0.518471    1.210835
H       0.987310    1.931895    0.069230
H      -0.544103    1.950331   -0.827218
H      -0.554513    1.899930    0.941839
H      -2.052769   -0.148488   -0.772230
H      -1.508223   -1.621445    0.045914
H      -1.954602   -0.198539    0.991275
H       0.053111   -0.210314   -2.156180
H       1.618581    0.100125   -1.414548
H       0.079084   -2.540472   -1.212231
H       1.438066   -2.249498   -2.277046
H       1.933584   -3.445500   -0.014282
H       3.006919   -2.129317   -0.460933
H       1.864734   -2.227591    2.037386
H       0.257088   -0.322213    2.169828
