17

C      -0.368089    1.364114    0.081964
C      -0.023040   -0.090734    0.012023
C       0.962994   -0.816504   -0.916359
C       0.257539   -2.117312   -0.467313
O       0.597231   -2.204216    0.950243
C      -0.230736   -1.066103    1.144747
C      -1.028300   -1.280703   -0.134452
C      -2.462139   -1.278888   -0.380092
O      -3.224126   -0.465516    0.101501
H       0.442511    1.935616    0.547931
H      -0.544549    1.777577   -0.916145
H      -1.280843    1.511817    0.666017
H       0.764904   -0.578826   -1.964432
H       2.033040   -0.746752   -0.695915
H       0.338791   -3.066088   -0.992323
H      -0.582951   -0.819159    2.137656
H      -2.830993   -2.084163   -1.052993
