23

C       0.069600    1.552616   -0.214891
C       0.092557    0.047405    0.006156
C       1.013538   -0.829916   -0.883405
C       1.297125   -1.725342    0.349873
C       2.680891   -2.282367    0.550857
C       3.533651   -2.699833   -0.570572
O       3.793740   -1.482767    0.131515
C       0.780531   -0.565871    1.274655
C       1.868717    0.288592    1.922406
H       1.074677    1.984220   -0.177301
H      -0.354215    1.790995   -1.197089
H      -0.541864    2.061371    0.539123
H      -0.932443   -0.337465   -0.050474
H       0.571833   -1.299714   -1.766029
H       1.917201   -0.289942   -1.181920
H       0.591873   -2.564267    0.389966
H       2.846147   -2.779899    1.509095
H       4.272321   -3.487630   -0.429305
H       3.172946   -2.579315   -1.591056
H       0.076585   -0.890349    2.048082
H       2.632529    0.600056    1.205283
H       1.437685    1.187009    2.376753
H       2.378725   -0.268244    2.715603
