25

C      -0.277993    1.586025   -0.203426
C      -0.079217    0.066397   -0.146488
C       0.853207   -0.499143   -1.238021
C       2.312169   -0.063619   -1.014198
O       3.190276   -0.460908   -2.053822
C       0.721722   -2.021830   -1.364614
C       1.122294   -2.851202   -0.154721
C      -0.433063   -2.536712   -2.189142
C       0.972464   -2.634477   -2.732209
H       0.651580    2.132876   -0.018965
H      -0.656593    1.897999   -1.183213
H      -1.001556    1.911665    0.550565
H       0.301131   -0.211240    0.845199
H      -1.055321   -0.423959   -0.243585
H       0.540876   -0.071169   -2.201170
H       2.374697    1.027893   -0.981599
H       2.661358   -0.431671   -0.034910
H       3.105297   -1.414373   -2.152298
H       0.524698   -2.594711    0.726405
H       0.973918   -3.917330   -0.352216
H       2.177018   -2.713986    0.110267
H      -0.920836   -3.452358   -1.871979
H      -1.102602   -1.813922   -2.644098
H       1.246076   -1.975206   -3.548668
H       1.430407   -3.617727   -2.779772
