23

C       0.025016    1.505768    0.115550
C      -0.094430   -0.015980    0.216480
O       0.229588   -0.470199    1.528473
C      -1.471928   -0.521475   -0.242804
C      -1.573871   -2.033165   -0.277260
C      -1.844687   -2.928012    0.900348
C      -2.872006   -2.316518    1.859708
C      -3.896003   -2.218807    0.682492
C      -2.850688   -2.834291   -0.258196
H       1.006390    1.833338    0.469137
H      -0.107161    1.849048   -0.915742
H      -0.740794    1.996963    0.729626
H       0.674972   -0.473327   -0.419393
H      -0.404010   -0.076588    2.138499
H      -2.237729   -0.085980    0.411792
H      -1.673740   -0.122023   -1.246000
H      -0.839138   -2.480218   -0.946779
H      -1.168264   -3.734667    1.156369
H      -3.200688   -3.018593    2.628936
H      -2.580768   -1.383383    2.353964
H      -4.756348   -2.873530    0.837524
H      -4.268907   -1.223120    0.419339
H      -3.070828   -3.559897   -1.033049
