18

O      -1.462238    1.655535   -1.083063
C      -1.830720    0.302404   -1.120651
C      -1.293424   -0.415985    0.109170
O      -0.671842    0.136525    0.982784
C      -1.582036   -1.908242    0.138537
C      -1.783466   -2.665369    1.466331
C      -3.136862   -1.923046    1.531741
N      -3.071884   -2.330763    0.041226
C      -2.559191   -3.676620    0.591865
H      -1.872768    2.095295   -1.833038
H      -2.922537    0.145513   -1.130838
H      -1.442367   -0.224780   -2.010652
H      -0.974369   -2.408508   -0.627051
H      -1.057041   -2.849192    2.261861
H      -3.959167   -2.403997    2.067184
H      -3.130998   -0.845484    1.704253
H      -2.003518   -4.265514   -0.143268
H      -3.343257   -4.269458    1.069699
