17

C       0.005638    1.550232   -0.007775
C       1.334584    0.793917   -0.023841
C       0.042442    0.067031    0.084912
C      -0.533678   -0.965211    1.023653
C      -1.717560   -1.162767    0.023731
C      -1.521399   -2.677081   -0.087293
C      -0.117401   -2.073480    0.004385
N      -0.515823   -0.892277   -0.932974
H      -0.244736    2.125864    0.877723
H      -0.328002    1.989497   -0.942326
H       1.865482    0.741174   -0.968838
H       1.973423    0.863483    0.850912
H      -0.548885   -1.015164    2.117242
H      -2.624639   -0.561943   -0.054646
H      -1.856489   -3.283795    0.757625
H      -1.790327   -3.129242   -1.045454
H       0.860749   -2.545615   -0.096785
