20

C       0.158909    1.679248   -0.058296
C       0.110684    0.149025    0.004723
C       0.690176   -0.544990   -1.257218
C       1.373779   -1.840494   -0.757650
C       1.604207   -1.554994    0.703787
C       0.929227   -0.478370    1.124173
C       0.808493   -0.004349    2.529544
N       1.848513   -0.331657    3.366506
O      -0.173037    0.603279    2.924407
H       1.189779    2.032847   -0.178291
H      -0.420666    2.046893   -0.911697
H      -0.253235    2.115161    0.853903
H      -0.937695   -0.146366    0.152517
H      -0.069279   -0.730978   -2.020789
H       1.444138    0.111988   -1.705917
H       0.723044   -2.719958   -0.867997
H       2.296654   -2.076651   -1.299636
H       2.186722   -2.212056    1.341635
H       2.753131   -0.543116    2.981095
H       1.824202    0.085352    4.284085
