15

O      -0.034776    0.025747    0.012784
C      -0.041188    1.218210   -0.010612
C      -1.109334    2.314055    0.093306
C      -0.013924    3.151111    0.818956
C       1.041734    2.317323    0.020654
C       1.134438    2.905044   -1.385088
O       2.156067    3.106174   -1.971709
O      -0.060597    3.226979   -1.954674
C      -1.305535    2.897905   -1.310743
H      -2.066155    2.097267    0.569763
H      -0.020446    4.227814    0.638988
H       0.033320    2.946166    1.888955
H       2.035497    2.114221    0.411621
H      -1.832083    2.187150   -1.955858
H      -1.885904    3.824872   -1.262056
