15

C       0.144586   -1.251759   -0.005270
C       0.050520   -0.054321    0.010370
C      -0.097391    1.398955    0.026747
C      -0.659980    1.948921    1.360792
O       0.516547    2.269283    2.086808
C       1.414460    2.769165    1.125789
O       1.182817    2.041129   -0.075946
C       1.237051    4.214181    0.896062
C       1.103376    5.395166    0.721377
H       0.236295   -2.309893   -0.020154
H      -0.714495    1.717113   -0.821033
H      -1.268842    2.844334    1.178965
H      -1.229691    1.215560    1.930339
H       2.429826    2.558679    1.477110
H       0.989644    6.440114    0.566449
