20

C      -0.189999    1.411727   -0.165764
C       1.245843    1.031966    0.096304
C       0.182117   -0.036708    0.044330
C      -0.233921   -0.770336    1.300085
C      -1.662915   -1.300828    1.190154
O      -2.048828   -2.033788    2.362312
C      -1.073187   -2.778033    2.938737
N       0.160830   -2.835803    2.673099
C       0.683158   -1.958781    1.627895
H      -0.731395    1.915802    0.628357
H      -0.464886    1.734963   -1.163499
H       1.954145    1.094285   -0.722052
H       1.664919    1.280826    1.065749
H       0.183122   -0.658043   -0.849258
H      -0.204625   -0.069774    2.146011
H      -2.392023   -0.493877    1.086789
H      -1.758112   -1.963782    0.318957
H      -1.499160   -3.380325    3.739448
H       0.859770   -2.558521    0.723379
H       1.667954   -1.600261    1.946802
