19

C      -0.075259    1.589825   -0.086631
C      -0.002260    0.087518    0.019109
O      -1.149253   -0.594886   -0.419858
C       1.307897   -0.651123   -0.168831
O       2.468907    0.107656   -0.344579
C       3.366746    0.104670    0.762050
C       2.685817    0.391676    2.076994
C       1.403952    0.078638    2.261294
C       0.650704   -0.621697    1.194009
H       0.832096    2.060554    0.292453
H      -0.194300    1.891751   -1.134615
H      -0.935355    1.967292    0.475222
H      -1.246779   -0.425614   -1.364313
H       1.279819   -1.576666   -0.742463
H       3.907351   -0.855933    0.815272
H       4.109450    0.876426    0.535332
H       3.279001    0.860045    2.856712
H       0.896345    0.299994    3.195955
H       0.123783   -1.523871    1.492146
