12

N      -0.091986    1.281443   -0.179424
C      -0.004803    0.023790   -0.009936
N       1.198685   -0.669671    0.191373
C       1.118751   -1.929463    0.345417
O       0.014438   -2.697692    0.340768
N      -1.238266   -2.096672    0.146808
C      -1.232990   -0.811197   -0.017506
C      -2.503678   -0.204531   -0.213895
C      -3.575563    0.312942   -0.380231
H       0.846731    1.686953   -0.143809
H       1.997532   -2.549668    0.506997
H      -4.519404    0.778432   -0.527701
