17

C       0.090039    1.448795   -0.036423
N       0.006823   -0.008343   -0.004987
C      -0.120662   -0.620637    1.240323
O      -0.151075   -0.012490    2.285280
C       0.073476   -0.798478   -1.168351
N       0.246205   -2.052706   -1.079169
C      -0.100199   -0.011949   -2.474380
C      -0.062178   -0.853374   -3.659651
C      -0.029801   -1.559072   -4.631308
H       1.032056    1.786055   -0.479684
H      -0.743969    1.893877   -0.587071
H       0.046822    1.783108    0.999485
H      -0.197103   -1.710642    1.151354
H       0.225730   -2.478493   -2.004647
H      -1.051327    0.534611   -2.436073
H       0.679249    0.756901   -2.543712
H      -0.001976   -2.171455   -5.498948
