14

O       0.431887    1.260111    0.107558
C       0.187470   -0.058503   -0.018568
C       0.528870   -1.013811   -0.954065
C      -0.060939   -2.198799   -0.450632
C      -0.057934   -3.575197   -1.060741
C       1.268153   -4.001921   -1.510834
N       2.312859   -4.326955   -1.881793
N      -0.708148   -2.000786    0.689518
N      -0.546292   -0.674434    0.933689
H       0.979828    1.548637   -0.629148
H       1.120992   -0.884986   -1.845058
H      -0.436657   -4.285288   -0.319418
H      -0.736093   -3.620826   -1.922531
H      -0.936790   -0.260056    1.762869
