18

N      -0.170393    1.437605   -0.142589
C      -0.079516    0.005136   -0.036144
C      -0.336197   -0.595166    1.350879
C      -1.366551   -0.771526    0.299671
C      -2.772309   -0.198524    0.138091
C      -3.010648   -1.391417   -0.828140
N      -1.768670   -2.027489   -0.309965
C       0.855911   -0.683919   -0.894589
N       1.569551   -1.230984   -1.625597
H       0.692571    1.877844    0.164195
H      -0.326430    1.720585   -1.105376
H       0.251629   -1.460461    1.637484
H      -0.515677    0.133435    2.133991
H      -3.364248   -0.255420    1.054121
H      -2.837597    0.808308   -0.273233
H      -3.910526   -1.991359   -0.667086
H      -2.961792   -1.097505   -1.883985
H      -1.131277   -2.410502   -1.002554
