18

C       0.130758    1.484943    0.099132
C      -0.035445   -0.046935   -0.027770
C      -1.504865   -0.465229   -0.041786
O      -2.064594   -0.085895    1.206307
C       0.669151   -0.533075   -1.271059
O       0.102483   -0.869990   -2.289057
C       2.218752   -0.586151   -1.206796
N       2.759938   -0.968303   -2.383526
O       2.832510   -0.313086   -0.192386
H       1.183664    1.752157    0.202743
H      -0.283025    1.995513   -0.777385
H      -0.413339    1.823489    0.982606
H       0.464367   -0.501555    0.834748
H      -2.017982    0.022528   -0.883098
H      -1.579784   -1.551291   -0.201414
H      -3.005811   -0.279718    1.184376
H       2.144555   -1.196458   -3.147628
H       3.756864   -1.066589   -2.471229
