15

O      -0.090277   -0.054926   -0.349038
C      -0.038538    1.062004    0.082820
C      -1.201835    2.052085    0.018553
N      -1.317278    3.017697    1.111521
C      -0.940539    2.550473    2.453291
C      -0.037719    3.438586    1.675713
C       1.211221    2.884304    1.032153
O       1.096084    1.497246    0.692834
H      -1.114101    2.614284   -0.920310
H      -2.117369    1.460328   -0.049651
H      -1.537838    2.959934    3.261958
H      -0.645557    1.512352    2.584438
H       0.031899    4.494635    1.931848
H       1.450565    3.458596    0.126386
H       2.070757    2.951795    1.704486
