17

N       0.164231    1.496187    0.175098
C       0.087355    0.060006    0.034570
C      -1.302335   -0.634017    0.157820
C      -2.526716    0.275254    0.147371
C      -3.781695   -0.464842    0.128960
C      -4.806411   -1.091855    0.122290
O      -1.077248   -1.290424   -1.133961
C       0.101172   -0.603569   -1.339633
N       0.853455   -0.538219   -2.340513
H       1.122575    1.782725    0.337467
H      -0.130892    1.958996   -0.678650
H       0.813789   -0.403537    0.706717
H      -1.385906   -1.387700    0.944543
H      -2.470526    0.917521    1.035009
H      -2.473527    0.945036   -0.719487
H      -5.716393   -1.638717    0.110892
H       0.505001   -1.111350   -3.111210
