20

C      -0.073478    1.590916    0.063052
C       0.013906    0.062128   -0.090436
C       0.925931   -0.525873    1.000039
C      -1.391339   -0.557243    0.012095
C       0.565261   -0.287341   -1.482205
O       1.866018    0.281079   -1.687884
C       2.893029   -0.540145   -1.969670
O       4.005418   -0.147230   -2.153899
H       0.909679    2.053894   -0.053910
H      -0.743125    2.025654   -0.687405
H      -0.462115    1.856454    1.051481
H       0.524161   -0.306964    1.994436
H       1.007006   -1.615216    0.907963
H       1.933224   -0.103190    0.947426
H      -2.058158   -0.169242   -0.765926
H      -1.358699   -1.648397   -0.084000
H      -1.841937   -0.323119    0.981599
H       0.614730   -1.377039   -1.612048
H      -0.085959    0.119688   -2.263645
H       2.590148   -1.605267   -2.012216
