16

C       0.008851    1.504617   -0.132423
C       0.077322   -0.002748    0.024959
O       0.608946   -0.540582   -1.196553
C       0.734227   -1.893137   -1.223321
O       0.433403   -2.628389   -0.307918
N       1.243224   -2.280635   -2.423702
C       1.490798   -3.667724   -2.748595
H       1.002265    1.923971   -0.316091
H      -0.640508    1.781274   -0.968039
H      -0.392413    1.955665    0.779992
H       0.723592   -0.295620    0.858641
H      -0.910089   -0.437647    0.210178
H       1.447088   -1.557545   -3.092394
H       1.197616   -4.262989   -1.883031
H       0.902226   -3.990002   -3.615465
H       2.550988   -3.849303   -2.960259
