18

C       0.064323    1.299969    0.163921
O      -0.014605   -0.077165   -0.128427
C      -1.324100   -0.601133   -0.071868
C      -1.346760   -2.028879   -0.565708
C      -1.050098   -2.994834    0.573999
C      -2.462048   -2.765393    0.114659
N      -2.818731   -1.981987    1.371643
C      -1.402074   -2.179851    1.827369
C      -1.844448   -0.851667    1.337179
H       1.101734    1.603686    0.004229
H      -0.584935    1.893972   -0.498541
H      -0.209278    1.525119    1.205439
H      -2.013635    0.040952   -0.643658
H      -1.055466   -2.285745   -1.575508
H      -0.407663   -3.859632    0.499475
H      -3.200764   -3.402328   -0.352120
H      -1.163924   -2.427328    2.854742
H      -2.069673   -0.041427    2.020876
