23

C       0.020666    1.562492   -0.026989
C       0.010009    0.023715    0.008255
C       0.695386   -0.478073    1.291878
C      -1.439095   -0.490195   -0.045553
C       0.748663   -0.526203   -1.220458
O       2.092556   -0.078760   -1.216891
C       2.842719   -0.536032   -2.308639
C       4.253964    0.011141   -2.181425
O       5.129588   -0.210973   -2.974163
H       1.043958    1.945858   -0.029226
H      -0.483654    1.940182   -0.923689
H      -0.498372    1.972785    0.845467
H       0.183971   -0.091679    2.179615
H       0.678097   -1.572510    1.346434
H       1.738709   -0.155298    1.329125
H      -1.951709   -0.151111   -0.952744
H      -1.477633   -1.585116   -0.025406
H      -2.008198   -0.122306    0.814263
H       0.722989   -1.629258   -1.214729
H       0.246795   -0.191640   -2.144364
H       2.893213   -1.637997   -2.346731
H       2.420341   -0.203389   -3.272616
H       4.405675    0.642927   -1.278385
