16

C       0.139041    1.309908   -0.311081
O      -0.060018   -0.044829    0.103206
C      -1.330066   -0.468855    0.195119
C      -1.395217   -1.899525    0.663204
N      -2.289186    0.317995   -0.095784
C      -3.653597   -0.175527    0.012093
C      -4.110132   -0.315083    1.404750
N      -4.445267   -0.431394    2.504798
H       1.219124    1.459601   -0.308123
H      -0.270695    1.472611   -1.311373
H      -0.350123    2.000505    0.380494
H      -0.391333   -2.310744    0.763323
H      -1.907923   -1.958882    1.628029
H      -1.961546   -2.511051   -0.046681
H      -4.318679    0.537514   -0.485879
H      -3.805710   -1.144926   -0.486293
