18

C       0.097196    1.489648    0.119313
C       0.114955   -0.038144    0.030563
C       0.577314   -0.556128   -1.326501
O       1.918763   -0.075288   -1.602035
C       2.726162   -1.065429   -2.089606
N       3.862429   -0.900524   -2.612801
C       2.034526   -2.375527   -1.915835
O       1.660542   -2.601679   -0.541582
C       0.685655   -2.067182   -1.433030
H       1.094590    1.899706   -0.057876
H      -0.582173    1.923746   -0.622782
H      -0.235775    1.816842    1.108328
H       0.774070   -0.463714    0.793872
H      -0.890184   -0.438909    0.214433
H      -0.077356   -0.180247   -2.125619
H       4.101645    0.092234   -2.650572
H       2.326402   -3.241996   -2.496015
H      -0.188533   -2.680000   -1.631483
