16

N       0.070563    1.309624    0.114048
C      -0.009086   -0.032715    0.026468
C      -1.041718   -0.930782    0.010469
C      -2.460543   -0.749400    0.007846
O      -3.290397   -1.643202    0.017191
C      -0.252242   -2.243972   -0.038597
C       0.830877   -2.029740    1.057023
C       1.213500   -0.972681   -0.017651
O       0.799468   -1.922488   -1.035510
H       0.934540    1.768772   -0.122064
H      -0.762637    1.868927    0.025553
H      -2.789696    0.319533   -0.005857
H      -0.784595   -3.175041   -0.212046
H       0.514321   -1.697345    2.047765
H       1.564928   -2.836939    1.103944
H       2.210448   -0.548200   -0.148331
