18

C      -0.016149    1.397654   -0.033519
C       0.043112   -0.132526    0.097946
C       0.743877   -0.538342    1.315130
C       1.345326   -0.872782    2.310368
C       2.016963   -1.242846    3.434612
C       2.615540   -1.572750    4.430124
N      -1.324362   -0.672364    0.105486
C      -1.890381   -0.967112   -1.209417
C      -1.468267   -2.066497   -0.298696
H       0.990347    1.822821   -0.037914
H      -0.516777    1.668538   -0.967571
H      -0.578327    1.821828    0.801255
H       0.615021   -0.533157   -0.762060
H       3.138688   -1.859465    5.308218
H      -2.940167   -0.719973   -1.335863
H      -1.269936   -0.783822   -2.085761
H      -0.567648   -2.616120   -0.567046
H      -2.203306   -2.641954    0.255566
