21

C      -0.020625    1.552363   -0.156689
C       1.431253    2.010059    0.006576
C       2.232601    1.778387    1.272692
C       1.697264    1.370656    2.630460
C       0.475769    0.429953    2.597470
C       0.412857   -0.491201    1.387000
C      -0.028550    0.037552    0.042360
C       1.403395   -0.424859    0.236240
C       2.315419    0.780059    0.144275
H      -0.711395    2.071476    0.519699
H      -0.349128    1.785575   -1.175560
H       1.749277    2.847210   -0.606707
H       3.092272    2.440928    1.348805
H       2.519332    0.872837    3.161628
H       1.453017    2.262345    3.219987
H       0.477799   -0.174943    3.509622
H      -0.446315    1.023379    2.638384
H       0.051820   -1.491511    1.608992
H      -0.741431   -0.547756   -0.529013
H       1.758851   -1.356965   -0.187360
H       3.239662    0.667349   -0.410922
