23

C      -0.136897    1.499956    0.047870
C       0.121134   -0.007751   -0.003833
C       0.688078   -0.547581    1.302944
O       0.907516   -1.934877    1.159819
C       1.480832   -2.563808    2.296250
C       0.422200   -2.859536    3.400215
C       0.135331   -4.331674    3.238412
C       0.985143   -4.920313    2.400074
C       1.996665   -3.951543    1.842208
H       0.785483    2.056960    0.246797
H      -0.544196    1.862165   -0.900468
H      -0.853940    1.756275    0.835803
H      -0.807404   -0.545286   -0.227925
H       0.822161   -0.247407   -0.811519
H       1.636281   -0.037327    1.549820
H      -0.010490   -0.336416    2.130151
H       2.294778   -1.931947    2.680036
H       0.810084   -2.636244    4.403561
H      -0.468033   -2.234554    3.265667
H      -0.668644   -4.829815    3.769121
H       0.984717   -5.973860    2.143440
H       2.066976   -3.974231    0.749620
H       3.003188   -4.154983    2.231118
