21

C      -0.153742    1.571772    0.021112
C       0.039868    0.056837   -0.008091
C       0.851335   -0.482025   -1.220725
C       1.603426   -1.686508   -0.651646
O       1.839885   -2.791463   -1.471055
C       2.601302   -1.462900    0.480617
C       2.311432   -0.154471    1.210344
C       0.789713   -0.538483    1.201872
C       1.188963   -1.971495    0.759410
H       0.806466    2.098202    0.049473
H      -0.693461    1.918681   -0.866437
H      -0.729147    1.880976    0.900690
H      -0.949587   -0.419287   -0.031905
H       0.202968   -0.805208   -2.040382
H       1.529843    0.281610   -1.622158
H       2.581679   -2.581025   -2.048382
H       3.526790   -2.028417    0.492669
H       2.717585   -0.164577    2.225336
H       2.603445    0.785268    0.727495
H       0.267911   -0.416571    2.151749
H       0.842541   -2.929195    1.123347
