20

C      -0.935944    1.091996   -0.562861
O      -0.626801   -0.002264    0.288189
C      -1.224219   -1.171842   -0.034427
N      -1.009965   -2.196254    0.660689
C      -1.673296   -3.449069    0.335627
C      -2.240479   -3.616713   -1.064216
C      -3.332021   -4.645779   -1.292553
C      -3.636912   -3.174291   -1.402237
O      -4.356362   -2.532576   -0.388479
H      -0.399476    1.954172   -0.164220
H      -0.603248    0.910382   -1.592902
H      -2.011128    1.310245   -0.566540
H      -1.875977   -1.113724   -0.915077
H      -0.947093   -4.252454    0.512801
H      -2.475249   -3.600502    1.068103
H      -1.506989   -3.509711   -1.859749
H      -3.314300   -5.248319   -2.194149
H      -3.708222   -5.156912   -0.411496
H      -3.807308   -2.771732   -2.401469
H      -5.266570   -2.844083   -0.423048
