17

C       0.020813    1.466871    0.012555
C       1.259504    0.651322    0.031347
C       1.970097    0.359241    1.373933
C       0.885968   -0.377712    2.119261
C      -0.180075   -0.545755    1.279976
N      -1.169045   -1.229172    1.917539
C      -0.728335   -1.505876    3.203163
C       0.542582   -0.988663    3.357602
N      -0.085622   -0.019712   -0.031020
H      -0.289466    1.952653    0.933758
H      -0.276564    1.967732   -0.904329
H       1.844211    0.582535   -0.880091
H       2.864133   -0.252960    1.200246
H       2.309425    1.280874    1.862331
H      -2.059141   -1.488152    1.529914
H      -1.350768   -2.058856    3.887685
H       1.138215   -1.062434    4.254931
