17

O       0.037082    1.498293    0.105305
C      -0.009545    0.108197    0.029483
C       0.822493   -0.700172    1.092927
C       0.450696   -2.201986    0.765500
C      -0.473883   -1.841974   -0.373154
O      -1.363520   -2.384205   -1.384058
C      -1.397800   -0.892920   -1.555614
C      -1.362014   -0.609985   -0.034151
C       0.114317   -0.719142   -1.273305
H       0.958085    1.776335    0.055429
H       1.897139   -0.517034    0.984084
H       0.535082   -0.416089    2.109018
H       1.316102   -2.796630    0.462163
H      -0.047332   -2.703728    1.598944
H      -2.039547   -0.520028   -2.351006
H      -2.191893   -0.605449    0.671240
H       0.946601   -0.844130   -1.965890
