20

C      -0.103770    1.527494    0.053607
C      -0.041105    0.028438   -0.031179
C      -0.755609   -0.885526    0.932704
C       0.735791   -0.990690    0.773262
N       1.258942   -1.704942   -0.457728
C       0.136639   -2.193449   -1.297902
C       0.443847   -0.748523   -1.292046
C       1.152039   -0.086896   -2.456606
O       2.101921   -0.963969   -3.025120
H       0.805384    2.003261   -0.327655
H      -0.952458    1.924702   -0.516629
H      -0.230113    1.845064    1.093320
H      -1.039317   -0.388357    1.856541
H      -1.459674   -1.653599    0.634947
H       1.428874   -0.872971    1.597316
H       0.502977   -2.749430   -2.154788
H      -0.754291   -2.607752   -0.843910
H       0.441022    0.177821   -3.248297
H       1.626807    0.847254   -2.116530
H       2.564434   -1.360618   -2.271980
