18

C       0.004344    1.510260    0.118316
C      -0.018038    0.019424    0.000149
C       0.449730   -0.848977   -1.205088
C       0.958149   -1.895270   -0.277093
C       0.501401   -1.064105    0.944297
C      -0.992869   -0.898668    0.699618
O      -1.832353   -0.348335    1.656665
C      -1.441789   -1.979586   -0.272904
N      -0.247565   -2.149015   -1.102029
H       1.017696    1.911825    0.008475
H      -0.624490    1.975932   -0.650154
H      -0.383180    1.816357    1.094235
H       0.799515   -0.501485   -2.169813
H       1.800095   -2.572455   -0.345561
H       0.979282   -0.962732    1.908908
H      -1.926535   -0.980915    2.377205
H      -1.693563   -2.925125    0.220833
H      -2.289061   -1.661794   -0.888765
