16

N      -0.176348    1.290408    0.010561
C      -0.089355    0.033033    0.004567
O      -1.213780   -0.712521    0.010216
C      -1.042328   -2.130974    0.001828
C      -2.408514   -2.740813    0.011955
N      -2.673735   -4.027111    0.010653
C      -4.048185   -4.109933    0.021848
C      -4.607717   -2.859495    0.029998
N      -3.541284   -1.988330    0.023469
H       0.752516    1.706175    0.005189
H       0.832414   -0.563852   -0.005063
H      -0.489394   -2.446716   -0.892644
H      -0.472470   -2.455385    0.882456
H      -4.552856   -5.063848    0.023431
H      -5.627247   -2.512882    0.039527
H      -3.560154   -0.981686    0.026650
