18

O       0.164541   -0.078502    0.122552
C       0.045187    1.125503    0.112739
C      -1.245436    1.938596   -0.038501
C      -0.863681    3.367617    0.353391
C      -1.726646    4.560450   -0.109006
C      -2.026328    4.753829    1.389288
O      -1.175147    3.644684    1.745713
C       0.657507    3.425405    0.095263
N       1.061725    2.039317    0.212584
H      -1.564518    1.882391   -1.085878
H      -2.044378    1.537153    0.586109
H      -1.169028    5.371976   -0.581693
H      -2.580442    4.299909   -0.736587
H      -1.679721    5.695156    1.831337
H      -3.066413    4.582846    1.690820
H       0.867380    3.836625   -0.903959
H       1.138987    4.062653    0.842886
H       2.021211    1.733625    0.238844
