20

C      -0.041630    1.603807   -0.004425
C       0.046991    0.075106   -0.010500
C       0.831098   -0.506368   -1.170254
C       1.598800   -1.527025   -0.791728
C       1.470845   -1.781381    0.667590
C       1.271468   -3.169323    1.183373
N       2.504127   -2.431524    1.478400
C       0.764894   -0.543333    1.236075
O       1.774288    0.307235    1.757286
H       0.954429    2.051573    0.041883
H      -0.534217    1.963337   -0.913495
H      -0.627496    1.969747    0.847355
H      -0.977802   -0.325663   -0.044361
H       0.726957   -0.137747   -2.185022
H       2.219615   -2.139445   -1.437559
H       0.626681   -3.343029    2.041639
H       1.294076   -3.983582    0.462273
H       3.268426   -2.748207    0.886479
H       0.046526   -0.809072    2.023378
H       1.340162    1.054086    2.180496
