14

O      -0.027360   -0.033568    0.053403
C       0.000441    1.159192    0.030550
O      -1.133202    1.938626   -0.008237
C      -0.709311    3.301148   -0.069052
C       0.035047    3.664401   -1.355201
C       1.211053    4.173576   -0.609827
C       0.668890    3.432370    0.649241
C       1.179271    2.121990    0.031224
N       1.304767    2.858892   -1.307895
H      -1.521153    3.954976    0.240612
H      -0.354890    3.915383   -2.331853
H       1.887625    4.998888   -0.776143
H       0.749123    3.691863    1.701453
H       2.130324    1.690517    0.330723
