13

C       0.015937    1.505449    0.026382
C       0.009935    0.012313   -0.021488
C      -0.139660   -0.811000   -1.118367
N      -0.074037   -2.091890   -0.641437
C       0.110733   -2.002863    0.711691
N       0.164715   -0.744956    1.109912
C       0.222652   -3.157217    1.528815
N       0.309018   -4.124640    2.159169
H       0.960469    1.878872    0.434535
H      -0.119815    1.931253   -0.971014
H      -0.785606    1.878271    0.671918
H      -0.282541   -0.600342   -2.165408
H      -0.147043   -2.942224   -1.176043
