17

C       0.073535    1.486612   -0.037449
C      -0.061956   -0.000587   -0.000057
C      -1.218666   -0.697093   -0.075877
C      -1.185820   -2.130794   -0.025917
C      -2.477238   -2.895179   -0.111599
C       0.015792   -2.754708    0.097248
C       1.259566   -2.025588    0.179420
O       2.372307   -2.465625    0.288926
O       1.127833   -0.618940    0.121801
H       0.706591    1.790361   -0.877955
H      -0.902788    1.963891   -0.136332
H       0.557111    1.848095    0.876313
H      -2.157615   -0.167505   -0.173432
H      -2.997406   -2.669873   -1.049761
H      -2.312331   -3.973111   -0.057663
H      -3.152022   -2.605613    0.702161
H       0.103381   -3.833384    0.140310
