10

O      -0.364865    0.058664    0.005441
C      -0.081767    1.222631    0.008594
N       1.204260    1.764166   -0.000845
C       2.424283    1.073883   -0.015652
O       2.539074   -0.124050   -0.023192
C       3.559121    1.987273   -0.020970
C       4.512452    2.719967   -0.025603
H      -0.832499    2.038449    0.019698
H       1.266620    2.772580    0.003891
H       5.367005    3.352700   -0.029708
