17

C      -0.121661    1.522981   -0.008597
O       1.146464    2.240468   -0.090916
C       2.057900    1.696000   -1.027671
C       3.171200    0.643726   -0.675025
C       2.890689   -0.115004   -1.957573
C       2.511451   -0.777159   -0.663621
C       1.079888   -0.335874   -0.760556
C       0.189661    0.054951    0.153354
C       1.487461    0.577171   -1.927283
H      -0.631336    1.942137    0.860371
H      -0.720925    1.747635   -0.900412
H       2.506565    2.530602   -1.575633
H       4.126638    0.814955   -0.194641
H       3.541827   -0.406053   -2.767792
H       2.986403   -1.588843   -0.128287
H       0.095970   -0.421521    1.124159
H       0.831337    0.778908   -2.770291
