20

C      -0.039099    1.562021    0.003602
C       0.005429    0.028462    0.003152
O      -1.345473   -0.478377   -0.024362
C       0.666809   -0.506897   -1.275431
C       0.973475   -2.002736   -1.157415
C       1.957737   -2.268220   -0.010543
C       1.596069   -1.490958    1.226849
C       0.728344   -0.479865    1.233801
H       0.968359    1.990930   -0.001485
H      -0.580716    1.922418   -0.876028
H      -0.558034    1.930943    0.895942
H      -1.700794   -0.417221    0.868492
H      -0.007947   -0.312165   -2.115392
H       1.591206    0.054197   -1.459949
H       0.034311   -2.530259   -0.959683
H       1.373665   -2.390815   -2.099671
H       1.994927   -3.339091    0.225649
H       2.982188   -2.002619   -0.314834
H       2.085130   -1.783348    2.154062
H       0.506088    0.038120    2.166588
