21

C      -1.293719    0.771480    0.364882
C      -0.037633   -0.051779    0.125011
O       0.861394   -0.082262    0.937730
C       0.001199   -0.803143   -1.188545
C       1.329886   -1.519214   -1.576300
C       0.893503   -2.675612   -0.629277
C      -0.522937   -2.291347   -1.137460
C      -0.445766   -2.677928   -2.627678
C       0.970489   -2.091769   -2.961853
H      -1.320040    1.616781   -0.333196
H      -2.194631    0.177680    0.176083
H      -1.300213    1.150707    1.387389
H      -0.471592   -0.187676   -1.964042
H       2.288259   -1.015560   -1.458111
H       1.251133   -3.683669   -0.860474
H       1.060142   -2.438443    0.419243
H      -1.430835   -2.557399   -0.593932
H      -0.499551   -3.761429   -2.768949
H      -1.243348   -2.222086   -3.221562
H       0.933659   -1.322703   -3.738956
H       1.678273   -2.860558   -3.284393
