21

C      -0.151343    1.596483   -0.003189
C      -0.163232    0.066905    0.045982
C       0.809808   -0.511270    1.091639
C       0.801783   -2.009922    1.164229
C       1.774976   -2.856925    0.664903
N       3.004724   -2.647635   -0.007634
N       1.380040   -4.149490    0.920910
C       0.176775   -4.151967    1.573684
C      -0.208420   -2.841550    1.736131
H       0.844802    1.978438   -0.255076
H      -0.852450    1.979207   -0.751680
H      -0.431223    2.026145    0.965430
H      -1.176306   -0.290937    0.266727
H       0.089838   -0.341377   -0.940750
H       1.825867   -0.163794    0.860630
H       0.561347   -0.086491    2.073808
H       3.696021   -2.207801    0.592202
H       2.890956   -2.050784   -0.819464
H       1.919195   -4.951415    0.643579
H      -0.298552   -5.073555    1.868367
H      -1.113819   -2.506359    2.220787
