18

N       0.108318    1.345731    0.181383
C       0.019296   -0.009455    0.060363
C      -1.097586   -0.801994    0.007866
C      -0.724646   -2.271885    0.068151
C       0.800435   -2.271260   -0.016845
C       1.434374   -1.664648   -1.231950
C       1.263870   -0.820526    0.023259
C      -2.457303   -0.348784   -0.095118
O      -3.438598   -1.071702   -0.140881
H       0.949405    1.792174   -0.146314
H      -0.729271    1.898241    0.091159
H      -1.066625   -2.728503    1.005271
H      -1.189285   -2.847354   -0.740279
H       1.358213   -3.028354    0.520979
H       2.446177   -1.972614   -1.473477
H       0.811809   -1.428989   -2.089153
H       2.140013   -0.483704    0.566709
H      -2.588320    0.761901   -0.140093
