21

C       0.063836    1.635689    0.072816
C      -0.017028    0.119665    0.023842
O       0.796386   -0.320710   -1.062880
C       0.765189   -1.684909   -1.345876
C      -0.583862   -2.319003   -1.851648
C       0.191716   -2.975684   -3.022982
C       1.379329   -2.020243   -2.741712
C       1.407609   -2.549108   -0.277017
O       1.911612   -2.146166    0.739070
H       1.096960    1.956693    0.232216
H      -0.290984    2.073690   -0.864707
H      -0.549680    2.021864    0.892360
H       0.336151   -0.319383    0.962727
H      -1.057940   -0.203626   -0.134043
H      -1.133226   -2.972834   -1.169908
H      -1.246651   -1.520327   -2.192370
H       0.440865   -4.020936   -2.822066
H      -0.265931   -2.918207   -4.012096
H       1.346915   -1.115263   -3.351357
H       2.391565   -2.430647   -2.763516
H       1.389346   -3.639707   -0.515743
