18

C      -0.119162    1.369420    0.027903
N       0.117182   -0.064137    0.008571
C       0.711310   -0.648561    1.088965
N       1.355834   -0.061618    2.054314
C       1.807721   -1.123811    2.835966
N       2.609602   -0.855025    3.946792
C       1.403955   -2.306827    2.310296
C       1.560936   -3.738832    2.653296
O       0.672136   -1.990142    1.150645
H       0.817347    1.879318    0.261774
H      -0.455314    1.684787   -0.962270
H      -0.864967    1.674346    0.775276
H      -0.586436   -0.635643   -0.432999
H       2.463979    0.093152    4.268502
H       2.478169   -1.506683    4.708607
H       0.602862   -4.233089    2.862631
H       2.051451   -4.305882    1.851600
H       2.185849   -3.833733    3.546169
