16

N      -0.074590   -1.133881   -0.120117
C      -0.038797    0.021540   -0.041749
C       0.018261    1.434851    0.050653
C      -1.042383    2.315673    0.721424
C      -0.363612    3.392159    1.545061
C       0.857797    3.617769    0.674208
C       0.527752    3.373069   -0.787393
C       1.287362    2.329454    0.003188
C      -0.747454    2.497919   -0.745040
H      -1.971530    1.849068    1.023677
H      -0.986097    4.289269    1.632843
H      -0.104534    3.045186    2.550606
H       1.613781    4.350759    0.927767
H       0.857116    3.987513   -1.612406
H       2.303205    1.976658   -0.097555
H      -1.456552    2.334998   -1.543783
