20

C       0.245803    1.618943   -0.208580
C       0.032975    0.120755    0.050958
C       0.580076   -0.700095   -1.103983
N       0.047215   -0.806181   -2.242195
O       1.766196   -1.283604   -0.744865
C       2.107423   -0.919107    0.594117
C       0.789975   -0.474615    1.258737
C       0.994197    0.434363    2.465980
O       0.020747   -1.623431    1.621293
H       1.307165    1.871688   -0.308359
H      -0.249150    1.893419   -1.142964
H      -0.174930    2.224947    0.598567
H      -1.033337   -0.082515    0.164201
H       0.622712   -1.383924   -2.857413
H       2.548499   -1.790860    1.087281
H       2.850376   -0.110960    0.577650
H       1.540202    1.345704    2.209377
H       0.027913    0.712875    2.895188
H       1.567543   -0.088446    3.241422
H       0.490184   -2.094226    2.318661
