19

O      -0.421921    1.491866   -0.008185
C      -0.206715    0.113017    0.031767
C      -0.458403   -0.722549    1.244907
C      -1.241215   -0.152438    2.419610
C      -2.505605    0.510201    1.820927
C      -2.760922   -0.199555    0.470918
C      -1.426639   -0.788023    0.035365
C      -1.412747   -1.966858   -0.854645
O      -2.396691   -2.532390   -1.267562
H       0.276343    1.917250    0.501063
H       0.609599   -0.228517   -0.607980
H       0.228974   -1.542016    1.431889
H      -1.509237   -0.979177    3.086552
H      -0.648702    0.552412    3.014011
H      -3.362878    0.430466    2.494764
H      -2.319036    1.570406    1.647198
H      -3.467280   -1.029204    0.571302
H      -3.173872    0.482852   -0.277041
H      -0.391262   -2.325359   -1.126796
