18

C      -0.246908    1.127568    0.178641
N       0.155229   -0.249235   -0.108113
C       0.909750   -0.366521   -1.359052
C       1.629104   -0.452227   -0.030564
C       1.762269   -1.946274   -0.213610
C       1.472164   -3.142816    0.275610
C       0.795793   -3.923532   -0.850989
O       0.457222   -2.950284   -1.862445
C       1.304783   -1.847982   -1.637205
H       0.478463    1.889426   -0.153688
H      -1.201593    1.323472   -0.319400
H      -0.393166    1.238748    1.257240
H       0.906125    0.443319   -2.079556
H       2.263874    0.271180    0.463036
H       1.540005   -3.514168    1.289876
H       1.435278   -4.710026   -1.284576
H      -0.129365   -4.400726   -0.504521
H       2.133815   -1.819881   -2.365313
