20

C      -0.122411    1.503516    0.007133
C       0.046601   -0.002516   -0.018739
C       1.430567   -0.583975   -0.268014
C       0.778016   -0.721258    1.085381
C       1.326578   -0.056237    2.319881
O       0.335184   -2.028065    1.439677
C      -0.620604   -2.612492    0.681157
N      -1.305400   -2.138547   -0.267702
C      -1.142773   -0.739194   -0.627891
H       0.773917    2.017560    0.363326
H      -0.329911    1.874616   -1.003722
H      -0.960676    1.801362    0.647365
H       1.504420   -1.480582   -0.875433
H       2.267488    0.100182   -0.364989
H       1.769513    0.913448    2.086048
H       0.539440    0.092512    3.066171
H       2.102415   -0.686094    2.766462
H      -0.755437   -3.644493    1.000525
H      -2.064425   -0.219500   -0.330064
H      -1.105490   -0.669429   -1.724014
