21

C      -0.721428    1.407957   -0.008464
C      -0.141616    0.000850    0.079401
C       0.950052   -0.500516   -0.945374
C       1.671308    0.526503   -1.821717
O       2.916791    0.029739   -2.281680
C       1.800102   -1.010997    0.252835
O       2.849639   -0.091310    0.631866
C       1.969823    0.572042    1.578386
C       0.799840   -0.382808    1.257190
H       0.047132    2.185827    0.013501
H      -1.293833    1.538745   -0.933039
H      -1.402188    1.594604    0.829702
H      -0.973326   -0.711436    0.072291
H       0.593505   -1.320297   -1.575527
H       1.071991    0.751774   -2.710339
H       1.808517    1.471157   -1.278826
H       3.486915    0.017427   -1.502854
H       2.140812   -2.048517    0.251818
H       2.361659    0.484565    2.598306
H       1.831168    1.633839    1.342901
H       0.363897   -0.909838    2.105414
