18

C      -1.127290    1.156709    0.075082
C      -0.215466   -0.057696   -0.022685
C       1.126926    0.065576   -0.812229
C       1.763892   -0.820517    0.250538
O       2.721545   -1.532209    0.305899
C       0.577065   -0.575106    1.233851
C       0.971706    0.478627    2.259149
N       1.014270    0.036653    3.549495
O       1.249220    1.625344    1.953816
H      -0.593667    2.019557    0.475447
H      -1.516349    1.412567   -0.916334
H      -1.986606    0.951572    0.722905
H      -0.779646   -0.910621   -0.414217
H       1.180384   -0.264948   -1.851824
H       1.533608    1.079283   -0.722094
H       0.192022   -1.479825    1.710765
H       0.946192   -0.940745    3.774038
H       1.421386    0.653215    4.235218
