17

C       0.098145    1.646797    0.549129
C       0.077644    0.222688    0.256183
C       0.065638   -0.955676    0.012094
C       0.064425   -2.357952   -0.304858
C      -0.695428   -3.307954    0.553725
O      -1.194723   -2.935533   -0.715805
C       1.291607   -2.893778   -1.036092
C       1.080682   -4.101313   -1.925437
O       2.360027   -2.349833   -0.904237
H       1.102838    2.058836    0.406724
H      -0.583832    2.194742   -0.110157
H      -0.203035    1.846712    1.583094
H      -0.355363   -4.338157    0.652365
H      -1.223046   -2.898872    1.412918
H       0.439566   -3.822390   -2.768357
H       2.049105   -4.442644   -2.292060
H       0.566894   -4.914133   -1.404916
