16

C      -0.018890   -1.185924   -0.004060
C      -0.014272    0.015737    0.002006
C       0.028565    1.471527    0.009089
C       1.464066    2.006566   -0.001265
O       1.387525    3.415858    0.006652
C       2.662962    4.028003   -0.001809
C       2.519981    5.477636    0.007208
C       2.431825    6.674967    0.014401
H      -0.038932   -2.247440   -0.009147
H      -0.500487    1.874018   -0.862630
H      -0.484485    1.865003    0.894377
H       2.012348    1.636511    0.879763
H       1.996142    1.645590   -0.895892
H       3.250255    3.707258    0.875744
H       3.234003    3.716666   -0.893368
H       2.346667    7.733504    0.021163
