23

C      -0.212148    1.441687    0.065434
O       0.073186    0.070016   -0.075625
C       0.755968   -0.522899    1.028426
C       0.171112   -1.916843    1.322431
C       1.379128   -2.781251    1.733353
C       2.564445   -2.036700    1.151083
C       3.910719   -2.690250    1.113613
C       2.226230   -0.801812    0.756271
C       3.090581    0.260116    0.152184
H       0.695239    2.061540    0.121146
H      -0.782772    1.744284   -0.817059
H      -0.819575    1.644302    0.961543
H       0.653517    0.147434    1.899007
H      -0.629184   -1.896297    2.066397
H      -0.255920   -2.283433    0.384210
H       1.472022   -2.856637    2.826711
H       1.311929   -3.812560    1.364842
H       4.239744   -2.969760    2.123239
H       3.876244   -3.620895    0.532384
H       4.680467   -2.049087    0.677675
H       4.106679   -0.089326   -0.046078
H       2.660685    0.607525   -0.794148
H       3.162709    1.137876    0.808806
