20

C       0.103713    1.559840   -0.228836
C       0.013725    0.066366   -0.011020
C       1.249099   -0.820737   -0.097223
C       0.574493   -0.583950    1.217173
C       1.183089    0.122776    2.434117
N       0.706292   -0.655362    3.585549
C      -0.010041   -1.594357    3.115413
C      -0.714685   -2.649173    3.897272
O      -0.173438   -1.677344    1.763704
H       1.042720    1.967032    0.160391
H       0.060162    1.801219   -1.296199
H      -0.718083    2.087778    0.267387
H      -0.898205   -0.397717   -0.377748
H       1.141489   -1.801028   -0.548187
H       2.212634   -0.345447   -0.260052
H       2.279270    0.128815    2.411983
H       0.855676    1.165365    2.525084
H      -0.528670   -2.501555    4.960460
H      -1.791134   -2.610835    3.702734
H      -0.364727   -3.641715    3.596504
