16

O      -0.100370    1.361235   -0.018254
N       0.052262   -0.040632    0.004587
C      -1.059064   -0.619034    0.097559
C      -2.554607   -0.332581    0.047757
N      -2.569050   -1.516271   -0.907537
C      -1.499860   -2.066584    0.024110
C      -2.260519   -2.227790    1.369815
N      -1.940637   -1.179852    2.366324
C      -3.029764   -0.957983    1.386804
H       0.812565    1.658241   -0.094721
H      -2.980811    0.607424   -0.292501
H      -3.440680   -2.046385   -0.821189
H      -0.869643   -2.875361   -0.338903
H      -2.653762   -3.187658    1.683571
H      -2.347746   -1.438068    3.264799
H      -4.058211   -0.868171    1.716436
