24

C       0.169986    1.561405    0.130910
C       0.042523    0.052383   -0.009739
O       0.742078   -0.539580    1.070026
C       0.773057   -1.968115    1.174436
C      -0.637797   -2.537531    1.401603
C       1.437201   -2.611713   -0.052680
C       1.627379   -2.250524    2.411526
C       2.799559   -1.414524    2.755013
N       1.572566   -1.363016    3.578460
H       1.221397    1.861728    0.107767
H      -0.353774    2.065051   -0.687145
H      -0.261454    1.897345    1.078226
H      -1.017739   -0.238433    0.001202
H       0.461755   -0.272591   -0.972778
H      -1.279839   -2.400845    0.526754
H      -0.581034   -3.611870    1.601305
H      -1.109157   -2.055321    2.262524
H       2.398786   -2.133993   -0.259231
H       1.616802   -3.675135    0.133812
H       0.808547   -2.538830   -0.945188
H       1.655673   -3.308374    2.667377
H       3.662074   -1.861712    3.241345
H       3.013274   -0.565555    2.114014
H       1.055266   -0.530480    3.301093
