18

O      -0.247019   -0.009824    0.306356
C      -0.166145    1.151130   -0.042700
C      -1.309710    1.857704   -0.777720
N      -1.340555    3.302080   -0.626761
C      -1.738387    3.890142    0.671351
C      -0.656298    4.978895    0.480546
C      -0.059258    4.042811   -0.617754
C       1.122728    3.252365   -0.154680
C       1.063072    1.948285    0.148645
H      -1.212770    1.601041   -1.843100
H      -2.259580    1.432356   -0.440731
H      -2.782761    4.215667    0.714238
H      -1.536307    3.244822    1.538876
H      -1.045695    5.908342    0.063278
H      -0.018236    5.197957    1.337075
H       0.177712    4.535577   -1.571728
H       2.060044    3.798927   -0.054284
H       1.925104    1.403937    0.522462
