13

N      -0.085712    1.354694    0.113747
C      -0.036871   -0.010675    0.026567
N      -1.169523   -0.708436   -0.031423
C      -1.071652   -2.038282   -0.060986
O      -2.216403   -2.748926   -0.115986
C       0.152228   -2.702819   -0.042871
N       1.289608   -1.994433    0.003046
C       1.192707   -0.701479    0.037856
F       2.316058    0.032391    0.076284
H       0.755190    1.855735   -0.121794
H      -0.956766    1.784328   -0.154942
H      -2.939327   -2.107623   -0.115840
H       0.214268   -3.783548   -0.070284
