20

C      -0.070522    1.612297    0.103715
C       0.112717    0.111583    0.057563
C       0.528133   -0.630858   -1.181256
C       0.746057    0.026345   -2.531536
C       1.766421   -0.692784   -3.437038
O       3.091341   -0.221239   -3.308586
C       1.506410   -0.515996   -0.003673
C       2.673287    0.306917   -0.112148
N       3.631789    0.949169   -0.219284
H       0.697142    2.142514   -0.463871
H      -1.048146    1.892987   -0.301474
H      -0.019750    1.970656    1.136562
H      -0.562580   -0.432144    0.712871
H       0.119411   -1.635322   -1.265974
H      -0.227288    0.044943   -3.038625
H       1.066456    1.067564   -2.433608
H       1.701591   -1.782337   -3.272879
H       1.500961   -0.514991   -4.484268
H       3.365066   -0.250877   -2.385575
H       1.671463   -1.413536    0.583105
