19

N      -0.049350    1.430475    0.045129
C      -0.007280   -0.032827    0.007686
C       0.627873   -0.624340    1.301599
C      -0.025514   -1.992677    1.480530
C      -1.366919   -2.036529    2.166745
C      -1.303719   -2.008454    0.660957
C      -1.437628   -0.649834   -0.022780
C       0.751486   -0.530237   -1.166108
N       1.351231   -0.871408   -2.094910
H       0.896190    1.804140    0.067462
H      -0.470626    1.787269   -0.808917
H       1.715536   -0.690810    1.222736
H       0.393645    0.060634    2.123429
H       0.611116   -2.867563    1.531078
H      -1.659506   -2.967282    2.640979
H      -1.709857   -1.144818    2.684423
H      -1.599921   -2.894852    0.113380
H      -2.098669    0.029872    0.525383
H      -1.818531   -0.734428   -1.043272
