14

N       0.009310    1.382808    0.125273
C       0.006029    0.017567    0.044706
C      -1.174908   -0.698776    0.025284
C      -1.208649   -2.114823   -0.009379
O      -2.124800   -2.887566   -0.028851
O       0.122270   -2.735467   -0.030623
C       1.232452   -2.017180   -0.014394
O       2.345506   -2.758234   -0.038005
C       1.261518   -0.662004    0.021727
H       0.850631    1.874902   -0.124512
H      -0.849463    1.872197   -0.065411
H      -2.136288   -0.201640    0.040879
H       2.075451   -3.686400   -0.059337
H       2.207315   -0.140384    0.043623
