21

C      -0.105682    1.553702    0.418157
C       0.018915    0.079086   -0.005199
C       0.891286   -0.701760    0.985045
C      -1.361877   -0.524878   -0.171733
O      -2.124935   -0.728167    1.050709
C      -1.821510   -1.868255    0.240369
C      -2.956355   -2.302023   -0.679141
C      -3.135775   -1.099021   -1.583207
C      -2.250407   -0.136285   -1.319087
H       0.881723    2.018923    0.496792
H      -0.693574    2.135669   -0.298540
H      -0.598228    1.627279    1.392863
H       0.496952    0.045570   -0.994298
H       0.393508   -0.773166    1.956906
H       1.097592   -1.715721    0.629449
H       1.851373   -0.197380    1.130184
H      -1.175806   -2.607490    0.705618
H      -2.688612   -3.204552   -1.243905
H      -3.866704   -2.537752   -0.114438
H      -3.923393   -1.042477   -2.326264
H      -2.174596    0.814278   -1.832802
