16

C      -0.003277    1.463040    0.028831
C      -0.018541   -0.024068   -0.048596
N      -0.043681   -0.711436   -1.117990
C      -0.024963   -2.133607   -0.755247
C       0.056209   -2.151722    0.770871
C       1.230815   -1.510543    1.441603
C       2.431583   -1.203584    0.708357
N       3.418473   -0.967088    0.153249
N      -0.037571   -0.751640    1.210380
H       0.906429    1.803885    0.535764
H      -0.039146    1.890605   -0.972908
H      -0.853459    1.820130    0.618499
H      -0.944587   -2.619209   -1.099609
H       0.813823   -2.633663   -1.251534
H      -0.507688   -2.882571    1.340776
H       1.408755   -1.731524    2.489955
