21

O       0.031924    0.016895   -0.018680
C      -0.015717    1.208096   -0.119160
C      -1.142446    2.244813    0.012057
C      -0.192822    3.286927   -0.661409
C      -0.051306    4.645963    0.018108
C       0.972801    5.543939   -0.644387
C       0.586863    6.389823   -1.833378
C       0.886560    7.041678   -0.505041
C       1.001561    2.284337   -0.530147
H      -2.085111    2.000125   -0.484134
H      -1.353981    2.475336    1.063227
H      -0.457408    3.426535   -1.713733
H      -1.026195    5.152180    0.019861
H       0.215625    4.492880    1.074111
H       1.978906    5.131623   -0.668515
H       1.300369    6.511149   -2.640836
H      -0.448464    6.362116   -2.158608
H       0.052989    7.450456    0.057135
H       1.806907    7.606078   -0.403613
H       1.679100    2.528991    0.297028
H       1.603176    2.065969   -1.415939
