19

C       0.034188    1.584826   -0.035637
C       0.039415    0.057984    0.054787
C       0.758607   -0.624301   -1.133926
O       1.292943   -1.859530   -0.658778
C       1.485678   -1.756040    0.716514
C       2.268590   -0.558265    1.246801
C       0.766745   -0.528899    1.259619
C       1.520893   -3.028076    1.467247
O       1.391476   -4.126673    0.992710
H       1.054483    1.982535   -0.029712
H      -0.453612    1.921830   -0.956506
H      -0.504322    2.029560    0.806562
H      -0.995758   -0.301526    0.096705
H       0.092827   -0.847253   -1.971773
H       1.567872    0.019203   -1.509960
H       2.773775   -0.677180    2.199476
H       2.818671    0.025885    0.517440
H       0.251613   -0.565684    2.213019
H       1.686589   -2.873667    2.559906
