17

C      -0.171970    1.535357    0.250850
C      -0.035433    0.072205   -0.093906
C       0.576305   -0.532327   -1.321339
C       1.540628    0.179198   -2.244080
O       1.914584    1.508020   -1.879858
C       2.773525    0.421314   -1.476478
C       2.485822   -0.003408   -0.050146
N       3.196167    0.152154    0.989163
N       1.235835   -0.686304   -0.009424
H      -1.126844    1.907562   -0.135660
H      -0.187031    1.649354    1.339798
H       0.628042    2.143616   -0.161825
H      -0.846677   -0.526422    0.320950
H       0.134121   -1.436637   -1.734820
H       1.527665   -0.032439   -3.308844
H       3.783172    0.446802   -1.877503
H       4.064368    0.634671    0.752779
