17

C       0.255642    1.384007    0.035255
N       0.009043   -0.040819    0.004561
C      -0.394835   -0.821523   -1.015351
N      -0.493523   -2.078108   -0.627171
C      -0.127652   -2.016416    0.688565
N       0.190701   -0.801160    1.114593
C      -0.074699   -3.208313    1.552584
C      -1.116229   -4.263465    1.394756
N       0.255091   -4.510408    0.940890
H       1.295275    1.580049    0.309146
H       0.057874    1.796265   -0.955799
H      -0.400301    1.864373    0.765559
H      -0.598443   -0.435918   -2.003508
H       0.365102   -3.033840    2.529095
H      -1.427087   -4.837698    2.263160
H      -1.885471   -4.087048    0.648623
H       0.292635   -4.376483   -0.068770
