23

C      -0.406976    1.459738   -0.022378
C       0.208711    0.057281    0.062207
C       0.804421   -0.433452   -1.250150
C      -0.161087   -1.050395   -2.246043
C       0.805322   -1.927213   -1.485969
O       1.829454   -2.554317   -2.206063
C       3.068448   -1.860994   -2.211500
C       2.894658   -0.433994   -2.722394
C       2.007680    0.360448   -1.750817
H       0.343375    2.214544   -0.277833
H      -1.191441    1.499699   -0.785599
H      -0.853268    1.748903    0.934091
H       0.987783    0.045559    0.836979
H      -0.560417   -0.651699    0.392943
H      -1.215132   -1.080886   -1.988410
H       0.041353   -0.934355   -3.305350
H       0.410625   -2.566257   -0.697900
H       3.512028   -1.848262   -1.201383
H       3.727197   -2.444533   -2.861016
H       3.869898    0.054750   -2.823812
H       2.448498   -0.474220   -3.723008
H       1.687448    1.304679   -2.206239
H       2.615615    0.630234   -0.875781
