21

C      -0.151819    1.499451    0.035531
C      -0.035992   -0.008517    0.082002
C       1.306325   -0.686212   -0.165083
C       0.683266   -0.702704    1.196925
C       1.321531   -0.180850    2.465446
C       0.424892   -0.641180    3.632034
C      -0.743619   -1.420381    3.027919
C       0.289742   -1.955789    1.994489
C       1.437005   -1.580960    3.025865
H       0.733381    1.976152    0.469463
H      -0.251118    1.861897   -0.993942
H      -1.023472    1.850986    0.599112
H      -0.898213   -0.538674   -0.319320
H       1.322727   -1.604069   -0.745285
H       2.170025   -0.046563   -0.326066
H       2.020871    0.636894    2.584534
H       0.473590   -0.146991    4.594362
H      -1.084970   -2.207381    3.706546
H      -1.605411   -0.869461    2.633112
H       0.149213   -2.913702    1.496804
H       2.274608   -2.123106    3.439357
