19

C       0.004118    1.623072    0.260545
C      -0.073851    0.112900   -0.004903
C       0.895414   -0.670629    0.905663
C      -1.472122   -0.451717    0.138268
C      -2.471245    0.167706    1.093689
O      -3.679855   -0.538691    1.182863
N      -1.906593   -1.484585   -0.473083
O      -0.965330   -2.066835   -1.331300
H       1.025955    1.975059    0.089193
H      -0.658443    2.187700   -0.402374
H      -0.257000    1.871424    1.294553
H       0.228303   -0.073429   -1.040541
H       0.630235   -0.551057    1.961768
H       0.878014   -1.735775    0.664076
H       1.918102   -0.303066    0.773407
H      -2.000189    0.236716    2.088824
H      -2.662235    1.205840    0.777988
H      -3.602295   -1.273755    0.557822
H      -1.463142   -2.793355   -1.720873
