18

C       0.043643    1.508441   -0.035057
C       0.071283   -0.011433    0.164511
C       0.651048   -0.383612    1.535480
C      -1.328696   -0.611346   -0.033182
C      -1.318674   -2.135849   -0.145674
N      -2.485939   -2.745913    0.218776
O      -0.357279   -2.766821   -0.542363
H       1.045718    1.935686    0.074254
H      -0.328203    1.776932   -1.029918
H      -0.604134    1.994719    0.704855
H       0.712593   -0.458770   -0.603131
H       0.033441    0.020138    2.347832
H       0.711429   -1.468523    1.655347
H       1.660372    0.023270    1.655640
H      -2.002322   -0.294612    0.774170
H      -1.766597   -0.229552   -0.965991
H      -3.305262   -2.224706    0.476031
H      -2.570508   -3.738063    0.068902
