15

O      -0.039940    1.440662    0.086867
C       1.391833    1.469683   -0.043073
C       2.041479    0.798789    1.240349
O       0.996221    0.401649    2.112530
C       0.401424   -0.635074    1.348163
O       1.477894   -1.508033    1.050154
C       2.302065   -0.537037    0.414254
C       1.445064    0.075344   -0.709301
C       0.031926   -0.000099   -0.042203
H       1.784435    2.411661   -0.425192
H       2.831811    1.305555    1.789875
H      -0.376942   -1.135917    1.918969
H       3.307775   -0.910638    0.244116
H       1.568773   -0.144990   -1.766794
H      -0.829124   -0.436487   -0.548012
