18

C       0.010723    1.593567    0.017126
C       0.070960    0.063252   -0.039219
C       0.690575   -0.573910    1.206326
C      -0.104305   -0.339968    2.506275
O       0.216153   -1.437940    3.374159
C       0.706678   -2.493165    2.663263
O       1.004663   -3.528707    3.181338
C       0.780065   -2.104440    1.190735
H       1.010066    2.024410    0.143080
H      -0.414162    2.003503   -0.903697
H      -0.609068    1.944869    0.849021
H      -0.939721   -0.343117   -0.181263
H       0.649580   -0.246069   -0.917969
H       1.700442   -0.167929    1.349459
H       0.157548    0.582577    3.027860
H      -1.186743   -0.342000    2.319310
H      -0.082868   -2.551654    0.680214
H       1.681516   -2.512952    0.732394
