19

C      -0.165351    1.525441   -0.005009
C       0.022918    0.015992    0.019158
C       1.187920   -0.613435   -0.831656
O       1.349095   -0.187400   -2.145570
C       2.162172   -0.219204    0.337985
C       0.889011   -0.618679    1.169961
O       0.658994   -0.199473    2.475793
C       0.778159   -2.108752    0.801462
C       0.975416   -2.105300   -0.519247
H       0.761362    2.086062    0.134906
H      -0.595906    1.830462   -0.964033
H      -0.857623    1.825866    0.787864
H      -0.939250   -0.482832   -0.125824
H       2.153700   -0.582005   -2.498358
H       3.059196   -0.829534    0.470333
H       2.396746    0.845919    0.375810
H       1.325047   -0.597390    3.046405
H       0.549534   -2.916410    1.483990
H       0.956823   -2.909269   -1.242924
