20

C       0.044631    1.568829   -0.066712
C       0.061855    0.042049    0.005846
C      -1.350380   -0.498212    0.257268
C       0.767819   -0.753037   -1.099558
C       1.273490   -1.784832   -0.171526
N       2.246897   -0.859307   -0.813459
C       2.451851   -0.160569    0.501242
C       1.089089   -0.667146    0.962746
O       0.855874   -0.795295    2.315334
H       0.999438    1.982745   -0.396451
H      -0.720143    1.910705   -0.773039
H      -0.194633    2.002072    0.911432
H      -2.029931   -0.219524   -0.554751
H      -1.361591   -1.590799    0.335503
H      -1.770377   -0.078568    1.180644
H       0.478225   -0.851886   -2.138698
H       1.341430   -2.864303   -0.206713
H       3.273524   -0.657094    1.023296
H       2.638146    0.916974    0.457132
H      -0.067165   -1.036238    2.453498
