21

C      -0.545460    1.400594   -0.047713
C       0.220420    0.081132   -0.041812
C       1.402330    0.005807   -1.016380
O       2.207778   -1.080838   -0.561763
C       1.916745   -1.360822    0.818773
C       3.245837   -1.420335    1.564805
O       4.110016   -2.372018    0.976307
C       0.913970   -0.284686    1.282865
O       1.536730    0.891845    1.786761
H       0.105682    2.229983    0.235765
H      -0.955907    1.604371   -1.042144
H      -1.382386    1.373333    0.657157
H      -0.463933   -0.743228   -0.278743
H       1.097927   -0.197827   -2.048053
H       1.976853    0.943286   -1.000735
H       1.442488   -2.352322    0.871448
H       3.697042   -0.417354    1.571049
H       3.086576   -1.735824    2.603650
H       4.117344   -2.163152    0.034003
H       0.208213   -0.692160    2.019188
H       1.927254    0.690427    2.641917
