17

C      -0.026566    1.491778   -0.322141
C      -0.022032    0.012038   -0.046427
O       1.238323   -0.669665   -0.162016
C       0.644899   -0.598789    1.111158
C       1.277755   -0.068172    2.404312
C       0.756462    1.195598    3.051013
O       0.769137   -1.273304    3.089759
C       0.236341   -1.805190    1.937768
O      -0.320492   -2.843583    1.791932
H       0.857039    1.975627    0.099779
H      -0.030483    1.669179   -1.402198
H      -0.922756    1.959036    0.098358
H      -0.854338   -0.553036   -0.468403
H       2.370746   -0.103178    2.382192
H      -0.336129    1.230339    3.021281
H       1.075423    1.238374    4.096239
H       1.151244    2.078664    2.540233
