19

C      -0.127167    1.523338    0.042370
C      -0.039940   -0.000496   -0.012064
C      -1.441270   -0.629667   -0.036393
C       0.806868   -0.428308   -1.209943
O       1.108476   -1.835462   -1.210321
C       1.309293   -2.485048   -0.044245
O       1.682672   -3.625629   -0.044085
C       0.973058   -1.757777    1.254403
O       0.689762   -0.378521    1.162601
H       0.871369    1.959821    0.128167
H      -0.611697    1.919908   -0.854616
H      -0.709558    1.830860    0.914773
H      -2.024788   -0.223131   -0.867743
H      -1.410686   -1.715546   -0.158458
H      -1.964335   -0.400549    0.896157
H       0.292733   -0.241979   -2.156513
H       1.751334    0.127336   -1.207185
H       0.139137   -2.317713    1.704864
H       1.829993   -1.869388    1.923905
