16

C      -0.050012   -1.212092   -0.050319
C      -0.045709   -0.011463   -0.038817
C      -0.018317    1.451651    0.005491
C      -0.615858    2.028916    1.343045
C       0.258188    3.254919    1.688394
C       1.532555    2.993395    0.925900
C       1.403284    2.028827    0.021451
C      -0.745280    1.990766   -1.164500
N      -1.305487    2.443028   -2.068542
H      -0.059116   -2.274162   -0.069431
H      -1.678507    2.253972    1.245615
H      -0.499382    1.256917    2.106207
H      -0.201659    4.194847    1.355992
H       0.418527    3.351059    2.767135
H       2.439380    3.565586    1.086282
H       2.149754    1.676933   -0.678118
