12

O       0.022626    0.026135    0.030965
C      -0.013506    1.208011    0.011547
O      -1.152950    1.964387    0.039835
C      -0.826701    3.328930    0.049534
C      -0.051736    3.840420    1.227809
C       0.683306    3.374256   -0.016612
O       1.089916    2.024232   -0.013572
C       1.462733    4.247374   -0.842757
N       2.071450    4.984425   -1.492233
H      -1.491235    3.944934   -0.540450
H      -0.078250    4.911038    1.394911
H       0.037704    3.219494    2.112549
