18

C       0.038830    1.573930    0.018036
C      -0.012607    0.062749    0.016442
C       0.410857   -0.593619   -1.313480
O       0.018512   -1.960627   -1.379811
C       0.064367   -2.682123   -0.153242
C      -0.309860   -1.774455    1.026035
N       0.669750   -0.651897    1.151312
C      -1.274359   -0.700276    0.482616
O      -2.446625   -0.491588    0.499151
H       1.017062    1.940109   -0.313608
H      -0.723174    1.981329   -0.653503
H      -0.144390    1.953616    1.025841
H      -0.066062   -0.107629   -2.170529
H       1.504028   -0.484814   -1.422527
H      -0.641406   -3.511073   -0.266311
H       1.067658   -3.105472    0.023359
H      -0.542756   -2.321083    1.942607
H       1.623756   -0.933691    0.926301
