19

C      -0.918449    0.315801    0.621874
C       0.384774    0.276530   -0.140594
O       1.371574    0.887429    0.199592
C       0.437585   -0.571488   -1.415935
C       1.686621   -1.461599   -1.471537
C       1.595421   -2.351129   -2.712337
O       0.350126   -3.042126   -2.736461
C      -0.722586   -2.147503   -2.695484
O      -0.738297   -1.362764   -1.525606
H      -1.731873    0.643379   -0.033673
H      -1.185848   -0.692650    0.953027
H      -0.820470    0.986243    1.476030
H       0.473504    0.143179   -2.260194
H       2.584124   -0.838511   -1.485337
H       1.718863   -2.089328   -0.574817
H       1.700198   -1.741606   -3.626142
H       2.375461   -3.116018   -2.722147
H      -0.695650   -1.481799   -3.580453
H      -1.639910   -2.738991   -2.693241
