19

C      -0.178602    1.682149   -0.092088
C      -0.153259    0.180011    0.113801
O      -0.243332   -0.333640    1.209527
C      -0.013512   -0.611403   -1.092598
C       0.099081   -1.270109   -2.100267
C       0.262705   -2.084999   -3.282432
C       1.697940   -2.239746   -3.893311
C       1.364723   -3.724707   -4.192337
C       0.211780   -3.643430   -3.157859
H       0.742720    2.009846   -0.585685
H      -1.008726    1.957068   -0.751752
H      -0.285097    2.182153    0.871767
H      -0.431137   -1.749904   -4.061454
H       1.950803   -1.583198   -4.728004
H       2.460858   -2.140143   -3.117730
H       0.988681   -3.858379   -5.210632
H       2.150390   -4.460627   -4.012764
H       0.530533   -3.961272   -2.162548
H      -0.737067   -4.126392   -3.398791
