18

C       0.003899    1.538249   -0.017024
C       0.012039    0.023782   -0.053404
C      -1.225708   -0.637104    0.528347
C       0.638486   -0.763426   -1.190484
C       1.925889   -0.111729   -1.678313
O       2.441889   -0.008430   -0.319726
C       1.312143   -0.725562    0.182058
C       1.525291   -1.726473    1.177972
N       1.676337   -2.531919    1.995366
H       0.979606    1.955121   -0.270980
H      -0.742484    1.936387   -0.712917
H      -0.255573    1.888837    0.987255
H      -2.114442   -0.336746   -0.036802
H      -1.161848   -1.728622    0.499936
H      -1.370476   -0.338281    1.571229
H       0.130450   -1.589786   -1.669669
H       2.556094   -0.782944   -2.270205
H       1.851915    0.863819   -2.169237
