17

C       0.164407    1.475384    0.081807
C       0.053484    0.025207    0.082776
C      -0.035421   -1.176500    0.091881
C      -0.100295   -2.609811    0.083232
O      -0.700562   -3.273918    1.196902
C      -1.399877   -3.348345   -0.044384
C      -2.724999   -2.634120   -0.129661
C      -1.307734   -4.692459   -0.726235
O      -0.394272   -5.460500   -0.574995
H       1.207876    1.791352   -0.022464
H      -0.403174    1.917223   -0.744429
H      -0.221071    1.898643    1.015574
H       0.777027   -3.129368   -0.300637
H      -2.639034   -1.619671    0.261446
H      -3.065940   -2.578980   -1.169063
H      -3.485580   -3.169469    0.448407
H      -2.155367   -4.920735   -1.410813
