15

C       0.103261    1.511629   -0.039945
O       1.168532    0.569382   -0.171198
C      -0.156846    0.067010    0.018137
C      -0.428574   -0.648622    1.309118
C      -1.898231   -1.054514    1.577992
O      -1.562153   -2.454286    1.598236
C      -0.172683   -2.175452    1.330538
H       0.105804    2.093906    0.880936
H      -0.142272    2.070720   -0.941613
H      -0.580440   -0.406597   -0.870788
H       0.046859   -0.111202    2.132141
H      -2.318684   -0.714465    2.532033
H      -2.606394   -0.811420    0.773986
H       0.159235   -2.607262    0.377293
H       0.482498   -2.537263    2.131429
