18

C      -0.112272    1.594432    0.539104
C       0.055640    0.266481    1.271780
C       1.023589   -0.679021    0.588360
O       1.523672   -0.440486   -0.485380
C       1.424798   -1.982951    1.323015
C       2.825476   -1.769498    1.951857
C       0.458196   -2.450032    2.309467
C      -0.322942   -2.845452    3.133784
H      -0.457844    1.432319   -0.484754
H      -0.837166    2.230237    1.054740
H       0.837663    2.132452    0.478442
H       0.391066    0.408708    2.307993
H      -0.900537   -0.264556    1.369240
H       1.525791   -2.734851    0.531680
H       2.791402   -1.001888    2.730479
H       3.179430   -2.697598    2.406356
H       3.528844   -1.457963    1.176345
H      -1.020105   -3.196143    3.854102
