16

O       0.178686    1.347929    0.186458
C       0.113191    0.001613   -0.009142
C       0.243230   -0.831456   -1.084859
O       0.519337   -0.690100   -2.420958
C       0.215005   -1.985659   -2.995787
C       0.269403   -3.049521   -1.853637
C       0.065135   -2.165588   -0.655453
C      -0.167645   -2.145008    0.694453
N      -0.126311   -0.810998    1.079428
H       0.275317    1.765254   -0.675153
H      -0.794792   -1.943576   -3.424676
H       0.932766   -2.166404   -3.798876
H      -0.497981   -3.815440   -1.999031
H       1.241059   -3.558621   -1.830358
H      -0.349648   -2.920112    1.419501
H      -0.335849   -0.455074    1.995251
