19

C      -0.486979    1.448733    0.321917
C       0.521155    0.349810   -0.061156
C       1.098823   -0.327216    1.093934
C       1.543448   -0.871591    2.072662
C       2.171836   -1.530320    3.209057
O       1.473970   -2.727585    3.515866
C       1.822139   -3.263135    4.781089
C       3.624265   -1.871020    2.817814
O       4.597621   -1.356673    3.296595
H      -0.009168    2.218164    0.934046
H      -0.889654    1.923501   -0.577451
H      -1.319050    1.029784    0.893800
H       0.032581   -0.393819   -0.703369
H       1.329643    0.783239   -0.663617
H       2.209536   -0.857971    4.080284
H       2.887397   -3.526766    4.847496
H       1.590294   -2.557633    5.592528
H       1.225751   -4.168076    4.912506
H       3.679653   -2.667262    2.043375
