14

N      -0.000248    1.301515    0.007340
C       0.002941   -0.037156    0.000012
N      -1.075255   -0.797479    0.002292
H      -2.025617   -0.452842    0.009822
C      -0.698985   -2.171769   -0.007326
C       0.669121   -2.271248   -0.015986
C       1.269708   -0.895481   -0.012042
N       0.965014   -3.577251   -0.024567
N      -0.225012   -4.217264   -0.022229
N      -1.280355   -3.362537   -0.010086
H       0.871865    1.801172    0.005041
H      -0.848964    1.842368    0.015369
H       1.867716   -0.637883   -0.896435
H       1.878002   -0.647469    0.868064
