21

C      -0.024319    1.562309   -0.030934
C       0.008043    0.032928    0.018059
C       0.658406   -0.532232   -1.267909
O       1.000989   -1.914675   -1.211600
C       1.629640   -2.313284    0.018023
C       0.646267   -2.073588    1.174447
C       0.752047   -0.534810    1.261281
C       2.260241   -0.353979    1.104849
C       2.766289   -1.370362    0.403624
H       0.987609    1.981379   -0.057038
H      -0.553498    1.920127   -0.921025
H      -0.534633    1.973065    0.846473
H      -1.025106   -0.333785    0.073934
H      -0.026801   -0.434296   -2.115739
H       1.552311    0.065774   -1.497615
H       1.920381   -3.354085   -0.135709
H      -0.357774   -2.439108    0.942933
H       1.003276   -2.546304    2.094184
H       0.346349   -0.104596    2.181822
H       2.804880    0.514092    1.457918
H       3.787920   -1.479558    0.061020
