17

C       0.017289   -1.190145   -0.013383
C       0.004419    0.012081   -0.003883
C      -0.009502    1.459085    0.004890
C      -0.656421    2.187301    1.236914
C      -0.354406    3.592831    0.640109
C       1.162914    3.425011    0.422129
C       1.372607    2.167013    0.043461
C      -1.042831    3.410761   -0.727686
C      -0.839765    2.152702   -1.109746
H       0.026675   -2.251752   -0.018027
H      -1.722702    1.971912    1.336845
H      -0.125577    1.982230    2.169376
H      -0.661390    4.463476    1.218224
H       1.887591    4.222469    0.515117
H       2.293014    1.678592   -0.243239
H      -1.542108    4.200314   -1.272731
H      -1.126849    1.656468   -2.025844
