17

C       0.055191    1.505290   -0.058222
C      -0.070821    0.017005    0.115257
C      -1.399134   -0.689827   -0.158388
C      -1.335306   -1.935133    0.722413
C      -0.204900   -1.958974    1.453689
C       0.653582   -0.792952    1.117085
O       1.060498   -0.769330   -0.276266
C      -2.357876   -2.910845    0.709172
C      -3.259260   -3.710314    0.671193
H       1.054667    1.840216    0.229823
H      -0.108358    1.787946   -1.104202
H      -0.684017    2.034376    0.552076
H      -2.257428   -0.061884    0.109359
H      -1.505715   -0.950053   -1.217024
H       0.066073   -2.732906    2.159674
H       1.380527   -0.386152    1.813582
H      -4.043276   -4.426003    0.646625
