21

C      -0.014635    1.559489   -0.041398
C      -0.011163    0.029114   -0.031983
C       0.713850   -0.564808   -1.238676
C       0.711706   -2.084180   -1.260633
O       0.131374   -2.747730   -0.425270
C       1.477016   -2.750896   -2.371505
O       2.127850   -1.918073   -3.290525
C       2.219700   -4.019492   -2.008622
C       0.977245   -4.107151   -2.840662
H       1.004680    1.961868   -0.032583
H      -0.515037    1.952762   -0.933812
H      -0.536540    1.958607    0.833725
H       0.461076   -0.341581    0.884318
H      -1.037258   -0.352734   -0.007855
H       0.262697   -0.211364   -2.178372
H       1.756309   -0.225398   -1.296958
H       1.485307   -1.629066   -3.947316
H       3.174591   -4.150749   -2.503390
H       2.161985   -4.333948   -0.973648
H       0.074193   -4.477039   -2.369729
H       1.090122   -4.311917   -3.899453
