20

C      -0.499338    0.970899   -0.131671
O       0.514834    0.007213    0.080767
C       0.928040   -0.607274   -1.099481
C       1.608968   -1.930333   -0.954677
C       0.225238   -1.860426   -1.581205
C      -0.955066   -2.407976   -0.843803
C      -2.315087   -2.451059   -1.499798
C      -1.557579   -3.731724   -1.244894
H      -0.154327    1.775745   -0.798771
H      -1.402751    0.521904   -0.566015
H      -0.742778    1.401584    0.842569
H       1.299890    0.088739   -1.854099
H       2.468516   -2.149495   -1.578214
H       1.666132   -2.326122    0.053927
H       0.181664   -1.992660   -2.660266
H      -0.946069   -2.189254    0.219271
H      -3.189685   -2.238274   -0.894637
H      -2.393027   -2.106451   -2.526157
H      -1.127982   -4.243049   -2.100358
H      -1.913271   -4.396226   -0.464962
