19

C       0.236019    1.477831   -0.083405
C      -0.039515   -0.014618    0.082251
O       0.415950   -0.714057   -1.105240
C       1.249915   -1.768345   -0.711090
C       2.836465   -1.731039   -0.784331
O       3.276552   -0.409635   -0.959102
C       2.844126   -2.215614    0.727475
C       1.435653   -1.664344    0.764574
C       0.754551   -0.625627    1.230775
H       1.311655    1.642663   -0.187357
H      -0.263734    1.851129   -0.981868
H      -0.136745    2.040719    0.778991
H      -1.125201   -0.178803    0.170585
H       0.886808   -2.725391   -1.110117
H       3.300073   -2.419851   -1.503407
H       4.222502   -0.383445   -0.784220
H       2.911683   -3.305604    0.796659
H       3.582990   -1.757809    1.389059
H       0.857537   -0.127927    2.187186
