21

C       0.170497    1.451917   -0.286722
C      -0.054218   -0.053680   -0.092639
O       0.686681   -0.747509   -1.124584
C       1.660361   -1.616119   -0.558528
C       1.525808   -1.443804    0.928157
C       0.568641   -0.563893    1.189781
C      -1.513783   -0.491355   -0.190633
C      -2.654079    0.268124    0.443318
C      -2.539840    0.188751   -1.058717
H       1.232087    1.678468   -0.161299
H      -0.124010    1.755043   -1.294662
H      -0.392454    2.047124    0.438614
H       1.474708   -2.654312   -0.878076
H       2.664459   -1.345215   -0.922698
H       2.138505   -1.975446    1.645616
H       0.232364   -0.231774    2.163772
H      -1.596829   -1.573281   -0.138397
H      -3.432042   -0.302697    0.938404
H      -2.446333    1.223580    0.912577
H      -2.257134    1.090105   -1.589896
H      -3.238572   -0.439344   -1.599975
