17

C       0.197630    1.263281    0.263131
N      -0.287095   -0.024359   -0.216886
C       0.476843   -0.738474   -1.125067
C       0.671978   -2.115274   -1.215936
C       1.472245   -2.340318   -2.389554
C       1.740928   -1.127040   -2.951741
N       1.132049   -0.152929   -2.169309
C       0.161547   -3.051183   -0.294289
C      -0.284868   -3.826021    0.517378
H       1.219247    1.228077    0.671646
H       0.176775    2.006188   -0.542482
H      -0.478716    1.623611    1.041310
H      -0.597960   -0.636170    0.526502
H       1.806628   -3.301607   -2.745537
H       2.315046   -0.852510   -3.820569
H       1.116291    0.829001   -2.378845
H      -0.678178   -4.521084    1.215951
