16

C      -0.291721   -1.045981   -0.611953
C      -0.126320    0.084515   -0.239777
C       0.074210    1.444978    0.226867
C      -0.459826    1.706084    1.654985
O       0.335450    2.765676    2.199766
C       1.421907    3.066422    1.336157
C       1.552296    1.870312    0.377634
C       1.163017    4.327603    0.605641
N       0.961417    5.307035    0.026626
H      -0.441557   -2.042349   -0.947883
H      -0.415596    2.142039   -0.464115
H      -1.510079    2.009893    1.658176
H      -0.347170    0.812626    2.280231
H       2.320499    3.209035    1.945428
H       2.125647    1.076807    0.863475
H       2.028445    2.123676   -0.569907
