20

C      -0.017294    1.350604   -0.246683
N       0.011268   -0.040352    0.152918
C      -1.052723   -0.698188    0.027925
O      -1.112200   -1.992241    0.403901
C      -2.320896   -2.674927    0.124250
C      -2.427528   -3.519405   -1.180016
C      -1.385250   -4.491238   -0.545676
C      -2.377039   -4.139569    0.607061
C      -3.525116   -4.325876   -0.428756
H       0.738689    1.526936   -1.020462
H      -0.993197    1.687404   -0.634496
H       0.249087    1.984665    0.606845
H      -1.998407   -0.296113   -0.370063
H      -3.181199   -2.041161    0.369652
H      -2.460936   -3.150823   -2.205793
H      -1.413676   -5.523121   -0.904183
H      -0.365756   -4.122161   -0.443199
H      -2.351466   -4.485354    1.640362
H      -4.471561   -3.816380   -0.224156
H      -3.686886   -5.347048   -0.778017
