19

O       0.021912    1.448855    0.032048
C       0.029113    0.024371   -0.031649
C       0.641219   -0.617616    1.207543
C      -0.096227   -1.658634    1.576953
C      -0.641013   -2.430014    2.754763
C      -2.058398   -2.144371    2.119056
C      -1.338952   -1.850103    0.757132
C      -1.447099   -0.558360   -0.076162
O      -2.338376    0.345077    0.548429
H      -0.200356    1.676608    0.942895
H       0.565223   -0.210585   -0.959085
H       1.489319   -0.176156    1.718833
H      -0.404003   -3.498663    2.722134
H      -0.428470   -2.050688    3.756949
H      -2.781850   -2.962196    2.138830
H      -2.506607   -1.237629    2.525640
H      -1.325802   -2.740529    0.119454
H      -1.761444   -0.749156   -1.112373
H      -2.149981    1.206875    0.154867
