16

O      -0.543809    0.789712    0.702775
C       0.225636    0.990341   -0.205599
C       1.379464    1.904091   -0.114131
C       1.803364    2.732016    1.108596
C       2.081845    3.899668    0.141285
C       1.923479    5.335595    0.353615
O       3.219989    4.742413    0.172797
C       1.690263    3.069838   -1.064984
N       2.429115    1.826486   -1.124800
H       0.116031    0.507290   -1.199999
H       0.978591    2.926426    1.796528
H       2.660984    2.342154    1.664091
H       1.587239    5.973626   -0.462760
H       1.715386    5.710495    1.354536
H       1.156634    3.397747   -1.949912
H       3.360492    1.892833   -0.717925
