18

O       0.923461   -0.120145   -1.081194
C      -0.022452   -0.025729   -0.050515
C      -1.279054   -0.788282   -0.412730
O      -1.377189   -1.391949   -1.454557
C       0.566435   -0.560788    1.265610
C       1.782120    0.172216    1.893751
N       1.100940    0.277563    3.236617
C      -0.084811    1.114604    3.005362
C      -0.149660   -0.303685    2.591431
H       0.508317   -0.666325   -1.767860
H      -0.321772    1.026687    0.097854
H      -2.100511   -0.772130    0.331753
H       0.790902   -1.622647    1.133780
H       2.678685   -0.443772    1.966925
H       2.047122    1.141432    1.459195
H      -0.600543    1.382757    3.922460
H      -0.033222    1.913073    2.267943
H      -0.770061   -1.024071    3.115659
