16

O       0.150635    1.343323   -0.192695
C       0.045312   -0.011930   -0.101002
C      -0.249168   -0.874054   -1.134957
C       0.080762   -1.361675   -2.527437
C       1.392608   -2.131265   -2.453153
C       0.132870   -2.758237   -1.912877
N      -0.251072   -2.168585   -0.618673
C       0.100836   -2.155331    0.703425
C       0.195494   -0.823603    1.071872
H       0.310416    1.697477    0.686905
H      -0.371350   -1.059630   -3.461904
H       1.754442   -2.553555   -3.387841
H       2.168740   -1.805879   -1.767616
H      -0.294588   -3.691886   -2.253856
H       0.142990   -3.048276    1.307598
H       0.302326   -0.456311    2.084244
