21

C      -0.021168    1.584164    0.032191
C       0.012557    0.052017   -0.023490
C       0.705601   -0.485472   -1.238300
C       0.658412   -0.043511   -2.697665
C       0.922905   -1.505865   -3.157863
C       2.248503   -1.503804   -2.402622
C       1.984060   -0.041458   -1.942368
C       0.974357   -1.963345   -1.705955
C       0.628643   -3.282229   -1.095407
H       0.990444    2.002835    0.043552
H      -0.547299    2.000842   -0.832878
H      -0.535449    1.929572    0.933727
H       0.509244   -0.332484    0.878344
H      -1.015750   -0.334456    0.009221
H       0.127949    0.782124   -3.154326
H       0.633230   -2.060820   -4.041123
H       3.157320   -2.056887   -2.603076
H       2.645451    0.786015   -1.719988
H       1.085465   -3.404953   -0.105972
H      -0.454992   -3.406001   -0.980756
H       0.988189   -4.102226   -1.727621
