17

C      -0.090509    1.494870   -0.131116
C       0.014495   -0.032378    0.038092
N       0.769307   -0.320182    1.261401
C      -1.358013   -0.601303    0.082721
N      -2.417913   -1.060882    0.147112
C       0.787231   -0.637319   -1.136640
C       0.599070   -2.043345   -1.570065
N       0.155888   -0.924643   -2.424767
H       0.917839    1.915000   -0.150450
H      -0.604714    1.748144   -1.060926
H      -0.641337    1.942286    0.701349
H       0.303274    0.082535    2.069380
H       0.821878   -1.323196    1.412939
H       1.778577   -0.196954   -1.213164
H       1.445292   -2.606813   -1.951335
H      -0.162732   -2.637256   -1.072176
H      -0.856262   -0.831081   -2.354581
