20

C      -0.011027    1.491512   -0.035196
C      -0.002353   -0.016761    0.005069
N      -0.801421   -0.742036    1.003208
C       0.678632   -0.772843    1.093083
C       1.369318   -2.082070    0.711187
C       1.269124   -2.292045   -0.804517
C       1.615255   -1.015811   -1.609099
C       0.119289   -0.722869   -1.348789
O      -0.123318   -2.140017   -1.199778
H       0.828349    1.879932   -0.623598
H      -0.934634    1.865927   -0.492860
H       0.064173    1.914693    0.971947
H      -1.161730   -0.077949    1.686016
H       1.132705   -0.205379    1.902127
H       2.424451   -2.046028    1.009094
H       0.904815   -2.926995    1.230973
H       1.689351   -3.247519   -1.129991
H       2.359604   -0.324570   -1.205430
H       1.823081   -1.239675   -2.656214
H      -0.500477   -0.274620   -2.131347
