19

C      -0.331428    1.493737   -0.006380
C       0.082458    0.042129    0.037658
N       1.515721   -0.283850   -0.116762
C       0.835844   -0.598164    1.153745
C       1.387992    0.136225    2.347058
O       2.074945    1.309691    2.021788
C       0.632139    0.161267    3.638655
C       1.898880   -0.667929    3.522791
H      -0.359088    1.853126   -1.040890
H      -1.335570    1.610617    0.415568
H       0.356796    2.114919    0.567047
H      -0.603631   -0.629300   -0.479160
H       1.657247   -1.112258   -0.685925
H       0.597502   -1.641279    1.353705
H       2.487963    1.123336    1.163836
H       0.687473    1.080435    4.210867
H      -0.322937   -0.350882    3.693660
H       1.811360   -1.749803    3.504717
H       2.787002   -0.286676    4.013130
