21

C       0.030144    1.651393    0.216597
C      -0.025471    0.143659    0.057613
C      -1.340815   -0.428077   -0.449346
C      -1.713594    0.034937   -1.855160
O      -2.889087   -0.666898   -2.235304
C       1.239554   -0.600759   -0.356199
O       2.442888    0.082395   -0.530855
C       0.711819   -0.726520    1.055825
O       1.468419   -0.060162    2.040112
H       0.939199    1.974072    0.724287
H      -0.001954    2.151470   -0.756467
H      -0.822161    2.005014    0.807508
H      -1.293382   -1.523835   -0.468257
H      -2.155338   -0.166078    0.238353
H      -1.882438    1.122248   -1.867009
H      -0.880362   -0.173802   -2.545316
H      -3.150898   -0.362054   -3.108765
H       1.145951   -1.437596   -1.043462
H       2.706553    0.386720    0.348736
H       0.234365   -1.644100    1.394960
H       2.075748   -0.702091    2.424295
