14

N      -0.220597    1.453741   -0.072162
C      -0.046924    0.007755   -0.041846
C      -1.434426   -0.646534   -0.010226
O      -2.113602   -0.308268   -1.224640
C      -3.379178    0.177527   -1.132148
O      -3.998320    0.510116   -2.091937
C      -1.349702   -2.109206    0.114803
N      -1.262663   -3.254232    0.236354
H       0.655543    1.916693    0.141868
H      -0.491203    1.750863   -1.004115
H       0.514907   -0.418168   -0.886813
H       0.476560   -0.274400    0.876977
H      -1.987313   -0.245483    0.848277
H      -3.743821    0.228488   -0.089448
