18

O      -0.191936    1.435283   -0.161610
C       0.004452    0.050400   -0.042298
C       0.352176   -0.509250    1.396336
C      -0.995393   -1.227111    1.395874
N      -2.030732   -0.182903    1.169425
C      -1.302730   -0.775058    0.017211
C       0.951230   -0.345006   -1.150189
C       2.405218   -0.368661   -0.978119
O       1.647450   -1.583629   -1.023924
H      -0.964196    1.624393    0.391794
H       1.189258   -1.208730    1.362639
H       0.502832    0.246754    2.170257
H      -1.252901   -2.158242    1.883837
H      -2.944572   -0.630636    1.216681
H      -1.833509   -1.258956   -0.794127
H       0.558595   -0.143072   -2.147912
H       3.050811   -0.190367   -1.835801
H       2.835612   -0.124397   -0.008831
