19

C       0.145916    1.498092   -0.049720
C       0.048592   -0.011155   -0.008920
C      -0.846639   -0.658176    1.046289
C       0.640338   -0.790557    1.162171
C       1.308306   -2.132286    0.933539
C       0.940010   -2.781072   -0.368977
C       0.362888   -2.132439   -1.386176
C       0.054865   -0.684524   -1.347894
O      -0.164875   -0.063372   -2.373115
H       1.087294    1.820267   -0.506178
H      -0.666490    1.917984   -0.648258
H       0.092058    1.918712    0.958968
H      -1.358935    0.017871    1.722228
H      -1.421873   -1.531291    0.758097
H       1.113291   -0.177168    1.923705
H       2.402409   -2.020507    0.963873
H       1.068132   -2.814356    1.761164
H       1.198729   -3.832234   -0.478321
H       0.159856   -2.621794   -2.333502
