19

O       0.036310    0.045657   -0.515821
C       0.008182    1.189991   -0.134947
C      -1.257461    2.010917    0.144751
C      -0.790948    3.311371    0.832197
C      -0.734151    3.153936    2.367692
C       0.545016    2.321369    2.628079
C       1.456385    2.676031    1.450101
C       0.701741    3.470962    0.428755
C       1.192280    2.087655    0.056984
H      -1.703058    2.227593   -0.834226
H      -1.993197    1.431913    0.709711
H      -1.397941    4.166323    0.529848
H      -0.621985    4.142229    2.827126
H      -1.639541    2.699482    2.782208
H       1.015980    2.586673    3.578528
H       0.332412    1.247487    2.673106
H       2.501561    2.887462    1.646309
H       1.076591    4.372630   -0.038989
H       2.059608    1.910858   -0.568119
