25

C      -0.027472    1.387568   -0.033205
O       0.020804   -0.015024    0.042886
C      -1.257212   -0.614727   -0.012051
C      -1.106655   -2.131647    0.103770
C      -0.468661   -2.524532    1.442618
C      -2.453809   -2.820337   -0.104960
C      -3.156338   -2.739646   -1.492797
C      -3.592083   -4.218602   -1.317196
C      -2.496367   -4.371466   -0.228637
H       1.000661    1.755822    0.011503
H      -0.486804    1.731872   -0.974064
H      -0.597601    1.824711    0.802556
H      -1.892782   -0.233782    0.808427
H      -1.758340   -0.348622   -0.958269
H      -0.434131   -2.446944   -0.707173
H      -0.295453   -3.603757    1.496660
H       0.486912   -2.013219    1.578412
H      -1.121835   -2.248821    2.279928
H      -3.152619   -2.498895    0.679017
H      -3.938623   -1.989063   -1.631493
H      -2.423624   -2.629120   -2.299749
H      -4.597379   -4.296655   -0.892981
H      -3.535300   -4.872385   -2.190670
H      -1.561881   -4.757911   -0.649814
H      -2.738567   -4.951392    0.665196
