18

N      -0.058996    1.362081    0.262419
C      -0.009799    0.125121   -0.005121
C      -1.288862   -0.678564   -0.088274
C      -1.533572   -1.469817   -1.388373
C      -0.778015   -2.788549   -1.484354
O      -1.275548   -3.769882   -1.983061
C       0.640433   -2.821716   -0.923412
C       1.437835   -1.525209   -1.083606
O       1.195765   -0.521893   -0.093320
H       0.890018    1.740396    0.312843
H      -1.321451   -1.364622    0.768036
H      -2.094616    0.042826    0.050316
H      -2.595222   -1.702769   -1.497206
H      -1.260488   -0.854289   -2.256669
H       0.590493   -3.072839    0.144388
H       1.163914   -3.645832   -1.416512
H       2.501956   -1.745959   -0.974125
H       1.294225   -1.097523   -2.085146
