18

N      -0.085983    1.197644   -0.632389
C      -0.062451    0.068059    0.133481
O       0.828046   -0.161587    0.929104
C      -1.244126   -0.874449   -0.088072
C      -1.004508   -2.245723    0.564667
C      -2.158360   -3.126363    0.430768
C      -3.128729   -3.827130    0.302134
C      -4.288424   -4.699398    0.172324
O      -5.046173   -4.323241   -0.973747
H       0.627439    1.891650   -0.481488
H      -0.848290    1.412744   -1.250466
H      -2.142813   -0.412556    0.338681
H      -1.439343   -0.988895   -1.160040
H      -0.116821   -2.708349    0.118158
H      -0.755622   -2.092228    1.619854
H      -3.946714   -5.744732    0.095587
H      -4.897724   -4.632011    1.088663
H      -5.797265   -4.923004   -1.027747
