18

C       0.122572    1.481515   -0.004983
O       1.231721    0.582514   -0.007572
C      -0.091243    0.026077    0.023387
C      -0.469233   -0.671408    1.309025
C       0.251316   -2.016104    1.478143
N      -0.115274   -3.092887    0.572232
C      -0.147005   -2.989337   -0.682085
O       0.058338   -1.927719   -1.517477
C      -0.526469   -0.649808   -1.254991
H      -0.017984    2.054895    0.910311
H      -0.028636    2.041766   -0.927214
H      -0.208399   -0.029399    2.156789
H      -1.554829   -0.828381    1.336267
H       1.332280   -1.839859    1.389430
H       0.074615   -2.377321    2.495988
H      -0.305307   -3.886900   -1.282078
H      -1.620899   -0.753531   -1.250699
H      -0.236211   -0.039457   -2.112343
