13

C       0.367956    1.519437    0.127405
O       1.027116    0.361281   -0.374951
C      -0.307974    0.215060    0.133410
C      -0.458250   -0.547462    1.385314
N       0.087741   -0.336474    2.542137
C      -0.378033   -1.370003    3.339933
C      -1.201975   -2.157683    2.608883
O      -1.262973   -1.641253    1.346783
H       0.754818    1.904655    1.068024
H       0.079889    2.260200   -0.617164
H      -1.058769   -0.009700   -0.621007
H      -0.090399   -1.464878    4.374802
H      -1.785252   -3.042068    2.797620
