20

C       0.389712    1.451191   -0.407881
C       0.053174    0.051935    0.039566
O       1.141205   -0.852797    0.268065
C       0.308057   -0.496021    1.382756
C       0.959325    0.246437    2.522128
C       1.912690   -0.660676    3.307697
C       2.456489    0.025630    4.559335
N       3.653072   -0.458030    5.002770
O       1.863066    0.918639    5.133507
H       1.220873    1.873841    0.159262
H       0.670444    1.448915   -1.466438
H      -0.480724    2.106633   -0.294835
H      -0.772583   -0.402427   -0.513592
H      -0.345031   -1.312534    1.704570
H       1.509765    1.115534    2.153173
H       0.192083    0.625439    3.204981
H       1.382419   -1.565128    3.637228
H       2.729437   -1.000977    2.661757
H       4.151620   -1.186773    4.524256
H       4.043140   -0.072542    5.846919
