17

O       0.113128    1.438520    0.201311
C       0.044621    0.029095    0.077795
C      -1.356134   -0.523696   -0.145364
C      -1.613311   -0.571403   -1.642283
C      -1.244895   -1.834503   -0.883707
C       0.200191   -1.992840   -1.420434
O       0.086932   -1.716079   -2.847016
C      -0.276944   -0.378513   -2.394914
C       0.690029   -0.538359   -1.177969
H      -0.386108    1.818842   -0.530432
H       0.501404   -0.367953    0.990815
H      -2.156202   -0.332149    0.560204
H      -2.582527   -0.407994   -2.091674
H      -1.921847   -2.665294   -0.742486
H       0.767579   -2.891401   -1.184019
H      -0.194373    0.384353   -3.167909
H       1.740861   -0.339444   -1.369910
