17

O      -0.112801    0.121519    0.841429
C       0.054382    0.963827   -0.011289
C       1.232068    1.872866   -0.068546
C       1.816689    2.272153    1.284614
C       2.541929    1.279648    0.445961
N       1.380598    2.859898   -1.108280
C       0.946244    2.576332   -2.472297
C       0.218881    3.571298   -1.631661
H      -0.698036    1.095471   -0.818736
H       2.203708    3.282449    1.334986
H       1.284040    1.910146    2.156046
H       2.505707    0.238299    0.743344
H       3.429558    1.604830   -0.082616
H       1.623287    2.908551   -3.254851
H       0.447260    1.632551   -2.681863
H      -0.771783    3.300085   -1.272973
H       0.360119    4.636441   -1.794966
