19

C      -0.787241    1.016486    0.625232
C       0.073819   -0.122124    0.144630
O       1.334525    0.223689   -0.432817
C       1.343405   -0.553474    0.768842
C       1.997859    0.096747    1.959038
C       1.273809    0.529737    3.191203
C       2.207428   -0.671876    3.264949
C       1.582421   -2.001687    3.438608
O       2.077762   -2.922416    4.039683
H      -0.202944    1.753169    1.179101
H      -1.246071    1.518651   -0.232849
H      -1.596481    0.648466    1.265307
H      -0.464658   -0.888398   -0.418408
H       1.643768   -1.589054    0.596205
H       2.855369    0.700355    1.675359
H       1.586768    1.435044    3.698334
H       0.212107    0.317917    3.261515
H       3.162432   -0.557591    3.765024
H       0.573781   -2.097534    2.970154
