20

C      -0.039840    1.572843   -0.010488
C      -0.025441    0.037638   -0.004797
C      -1.479700   -0.490849   -0.037171
O      -2.237126   -0.139318    1.110524
C       0.783648   -0.569837   -1.190745
C       1.571804   -1.775217   -0.614293
C       1.552561   -1.512072    0.872432
C       0.706946   -0.536470    1.197466
H       0.970002    1.977560    0.109456
H      -0.447869    1.953024   -0.954207
H      -0.667169    1.953575    0.800630
H      -2.009502   -0.047938   -0.888660
H      -1.469166   -1.582047   -0.183825
H      -1.871701   -0.626115    1.856168
H       0.138196   -0.849598   -2.029782
H       1.485085    0.182009   -1.565953
H       1.091410   -2.735711   -0.846986
H       2.588103   -1.841476   -1.019250
H       2.152784   -2.080931    1.574916
H       0.526362   -0.177433    2.206169
