15

O      -0.023395    1.493031   -0.062870
C       0.069341    0.092077   -0.037090
C       0.072092   -0.603338    1.343047
C      -1.468271   -0.355168    1.531932
N      -1.832144   -1.790584    1.779573
C      -0.722526   -1.837142    0.770403
C      -0.180960   -3.052757    0.221681
N       0.273074   -4.024187   -0.211452
C      -1.297240   -0.599693   -0.002762
H       0.864777    1.861184   -0.025681
H       0.786360   -0.293420   -0.773230
H       0.837161   -0.645019    2.119803
H      -1.963499    0.477819    2.022926
H      -1.482268   -2.094245    2.693203
H      -2.089169   -0.636747   -0.748075
