16

O       0.012977   -0.082800   -0.005682
C      -0.005918    1.131722    0.002906
C      -1.320907    1.917535    0.005213
N      -1.242489    3.347546   -0.297744
C      -0.100951    3.960057    0.377403
C       1.240672    3.325926   -0.041329
N       1.138666    1.880970    0.077086
C      -0.072569    5.407363    0.135427
N      -0.018954    6.542262   -0.070808
H      -1.997462    1.432442   -0.700969
H      -1.764796    1.784341    1.000944
H      -1.157892    3.492810   -1.299441
H      -0.238196    3.802026    1.455687
H       1.474317    3.634024   -1.071119
H       2.049375    3.691046    0.601082
H       1.989848    1.337166    0.049416
