18

O       0.024888    0.034524    0.060401
C       0.029298    1.236701   -0.028993
N      -1.066594    2.096692   -0.135207
C      -0.458539    3.424896    0.019740
C       0.734278    3.372377   -0.981445
C       1.617161    4.573642   -0.642168
C       1.576000    4.497122    0.916386
C       0.682440    3.269230    1.083809
C       1.186872    2.230736    0.001633
H      -1.922651    1.853004    0.341831
H      -1.172369    4.248832    0.031961
H       0.541355    3.144420   -2.030284
H       2.628509    4.468391   -1.044533
H       1.202208    5.509183   -1.029654
H       2.564955    4.356326    1.361422
H       1.134254    5.390007    1.370106
H       0.446299    2.931889    2.094823
H       2.194399    1.819216    0.007303
