18

N      -0.079826    1.059957    0.013304
H       0.389809    0.157100    0.136951
H       0.627099    1.736151   -0.287010
H      -0.773383    0.963968   -0.732904
C      -0.702829    1.483172    1.318109
C      -1.357195    0.414997    2.134501
C      -0.049813    1.034388    2.583175
C       1.229096    0.204702    2.573501
O       1.437739   -0.403802    3.806384
C      -0.172758    2.100152    3.735522
O       0.571580    1.876222    4.717030
O      -1.000097    2.996138    3.522181
H      -1.102888    2.490539    1.284751
H      -2.266609    0.702006    2.649561
H      -1.333013   -0.608985    1.764923
H       1.185321   -0.602508    1.810333
H       2.072013    0.864938    2.285830
H       1.230954    0.340716    4.437418
