15

N      -0.017206    1.248686    0.009161
C      -0.033265   -0.004323    0.034841
O       1.020890   -0.913611    0.071426
C       0.090722   -2.048662    0.000791
C      -0.354727   -2.660276    1.342003
C      -0.471666   -1.607473    2.408545
C      -1.547950   -1.687519    1.370237
C      -1.101628   -1.081647    0.008175
H       0.939240    1.608576    0.024294
H       0.335159   -2.722200   -0.818597
H      -0.317158   -3.717203    1.573162
H      -0.754063   -1.990782    3.383528
H       0.220888   -0.773134    2.441988
H      -2.581847   -1.883731    1.621253
H      -1.850445   -1.046759   -0.779158
