21

C      -0.222753    1.609353    0.289437
C       0.216247    0.212492   -0.142456
N       0.808001   -0.497857    0.994290
C      -0.081123   -1.280439    1.845760
C       0.916275   -1.954744    0.962554
C       0.498319   -2.819568   -0.228345
C       0.899328   -4.279682    0.000177
O      -0.884083   -2.716720   -0.560897
H       0.617496    2.163568    0.717455
H      -0.615449    2.171455   -0.563651
H      -1.011121    1.554426    1.047796
H      -0.627558   -0.331678   -0.588054
H       0.992932    0.293711   -0.913325
H       0.085694   -1.206777    2.917741
H      -1.127033   -1.345359    1.550044
H       1.837141   -2.310146    1.425361
H       1.013652   -2.450852   -1.124408
H       1.982893   -4.382203    0.114151
H       0.430050   -4.672745    0.910744
H       0.578198   -4.891854   -0.846367
H      -1.384439   -3.120394    0.157382
