23

O      -0.025295    1.313440   -0.301406
C       0.073992   -0.059501    0.000065
C       0.213467   -0.505013    1.481983
C      -0.827124   -1.623538    1.189390
C      -1.867563   -1.955247    2.253968
C      -2.894112   -2.969302    1.791824
C      -2.610494   -4.447311    1.905342
C      -3.653200   -3.805548    2.789160
C      -1.265842   -0.816004   -0.068452
H       0.852457    1.702425   -0.233050
H       0.834044   -0.549152   -0.626576
H       1.200608   -0.794499    1.852508
H      -0.209001    0.263419    2.138212
H      -0.315985   -2.542847    0.881871
H      -1.360993   -2.339219    3.150628
H      -2.373583   -1.028933    2.560919
H      -3.454611   -2.665764    0.910670
H      -2.942656   -5.105947    1.110382
H      -1.674871   -4.747955    2.366598
H      -3.416347   -3.677988    3.840710
H      -4.697713   -4.023539    2.594995
H      -2.083140   -0.127503    0.171325
H      -1.508213   -1.354765   -0.986992
