18

N      -0.068752    1.291276    0.337640
C      -0.030450    0.055690    0.041666
O       1.178989   -0.559140   -0.088021
C       1.370128   -1.965216   -0.305619
C       0.790160   -2.499994   -1.588315
C      -0.487581   -2.390470   -1.954989
C      -1.583299   -1.753614   -1.189916
C      -1.750876   -1.994074    0.296478
C      -1.335912   -0.627297   -0.187571
H       0.883045    1.642977    0.462772
H       2.457223   -2.069703   -0.322342
H       1.016379   -2.522896    0.570054
H       1.485977   -3.002082   -2.253476
H      -0.779994   -2.800692   -2.918482
H      -2.505839   -1.645190   -1.749858
H      -2.759158   -2.085320    0.684005
H      -1.032698   -2.633965    0.790479
H      -2.115875    0.122649   -0.150870
