19

C      -0.193339    1.376601   -0.107695
C       0.102780   -0.094816    0.058677
C       1.489237   -0.662205   -0.112595
C       2.620076    0.173935   -0.373075
C       3.574974    0.870636   -0.600611
C       0.815313   -0.639942    1.290211
C       1.332223    0.268365    2.385450
C       0.354974   -1.988222    1.730278
O      -0.107143   -2.830516    0.996373
H       0.653256    2.002663    0.180847
H      -0.421743    1.595747   -1.155829
H      -1.061333    1.670690    0.491340
H      -0.672293   -0.766906   -0.299734
H       1.530562   -1.655881   -0.549407
H       4.420837    1.477464   -0.809815
H       1.920434    1.093930    1.982517
H       0.510281    0.688490    2.975236
H       1.982441   -0.288697    3.068873
H       0.471297   -2.183695    2.819791
