21

C       0.055963    1.570436   -0.193980
C       1.332068    0.780204   -0.058596
C       2.172520    0.853265    1.214734
C       1.480012    0.195299    2.422095
C       0.842772   -1.138879    2.011665
C      -0.423327   -0.580257    1.329187
C      -0.847207    0.421036    2.406849
O       0.374289    1.003082    2.872351
C      -0.012863    0.073166    0.001637
H      -0.212755    2.218200    0.632430
H      -0.204184    1.964553   -1.170696
H       1.906177    0.646163   -0.970208
H       3.121249    0.327631    1.048538
H       2.424948    1.889500    1.467570
H       2.182728    0.107655    3.256457
H       1.474510   -1.725028    1.340318
H       0.593633   -1.746216    2.887391
H      -1.194736   -1.335231    1.159883
H      -1.504154    1.214128    2.037750
H      -1.360150   -0.091621    3.234214
H      -0.288186   -0.503648   -0.876125
