21

C      -0.155567    1.518917    0.042446
C       0.177000    0.062650    0.007101
C       0.734740   -0.765295   -1.161551
C       1.357465   -1.753602   -0.114345
C       2.873267   -1.805763   -0.146670
O       3.262845   -2.396102   -1.377941
C       0.758451   -0.867218    1.002213
C       1.225815   -0.698179    2.412395
O      -0.658668   -0.838501    0.760689
H       0.672064    2.116190   -0.354059
H      -1.041752    1.727571   -0.568133
H      -0.367206    1.844988    1.064489
H      -0.018924   -1.175848   -1.837337
H       1.503259   -0.250547   -1.744120
H       0.948740   -2.767968   -0.135839
H       3.281890   -0.784940   -0.048493
H       3.246191   -2.389769    0.710439
H       4.223645   -2.423805   -1.408419
H       2.303007   -0.505303    2.452289
H       0.704582    0.135163    2.891187
H       1.024401   -1.602183    2.998906
