18

C      -0.279287    1.441913   -0.005847
N      -0.040755    0.018018   -0.033605
C       0.344931   -0.747487   -1.081810
C       0.415162   -2.048591   -0.633657
C       0.048843   -1.964593    0.730497
N      -0.223767   -0.711582    1.092367
N      -0.097826   -3.039861    1.617264
C       1.102778   -3.616156    2.230562
C       0.145670   -2.804658    3.033521
H      -0.051204    1.857210   -0.989170
H      -1.324633    1.651804    0.239657
H       0.358433    1.920454    0.743022
H       0.530934   -0.314928   -2.052858
H       0.680388   -2.928674   -1.195269
H       1.111024   -4.699443    2.307250
H       2.059083   -3.160893    1.984221
H       0.452004   -1.804177    3.323462
H      -0.550331   -3.292757    3.709259
