20

C      -0.035303    1.556287    0.226724
C      -0.037542    0.042760   -0.052694
C      -1.414475   -0.543879   -0.057374
C      -2.143570   -1.020473   -1.070745
C      -3.469985   -1.496737   -0.559512
O      -3.432222   -1.242746    0.846680
C      -2.214505   -0.689617    1.175639
N      -1.846926   -0.374177    2.343453
C      -2.748323   -0.600648    3.460390
H       0.988684    1.941668    0.235948
H      -0.595901    2.098630   -0.541414
H      -0.491056    1.760384    1.197991
H       0.447666   -0.163907   -1.012621
H       0.548051   -0.458387    0.726405
H      -1.855631   -1.079885   -2.112376
H      -4.321667   -0.957378   -0.996458
H      -3.635376   -2.570171   -0.726905
H      -2.163196   -0.904093    4.334403
H      -3.255134    0.336591    3.725665
H      -3.517600   -1.356898    3.265337
