23

C      -0.011275    1.624379   -0.031698
C      -0.001890    0.086127    0.039714
C      -1.340851   -0.495047    0.028183
C      -2.458468   -0.949379    0.013616
C      -3.788935   -1.485425    0.012132
C      -4.347094   -2.188089   -1.222222
C      -4.060130   -2.992104    0.015908
C      -2.881538   -3.943558    0.001080
C      -5.241140   -3.463845    0.841938
H       1.011114    2.014306   -0.018795
H      -0.500631    1.967573   -0.947301
H      -0.552768    2.048851    0.818123
H       0.575968   -0.313104   -0.804182
H       0.532005   -0.232690    0.944805
H      -4.510441   -0.894474    0.571165
H      -5.379630   -1.984411   -1.486666
H      -3.676276   -2.292979   -2.067681
H      -2.043285   -3.533992   -0.567202
H      -2.526704   -4.143809    1.018649
H      -3.166497   -4.902319   -0.447592
H      -5.631585   -4.413369    0.456615
H      -4.953730   -3.623258    1.887660
H      -6.059702   -2.737370    0.825614
