25

C       0.409610    2.278948   -0.793927
C       0.045619    0.786002   -0.765472
C       0.026159    0.270872    0.686038
C      -1.356794    0.616339   -1.391929
C       0.982151   -0.119494   -1.570291
O       1.451862    0.301111   -2.855955
C       2.432063   -0.051222   -1.856736
C       3.364415    1.055284   -1.408417
C       3.146596   -1.360346   -2.141038
H       1.280861    2.503810   -0.173948
H       0.610942    2.610572   -1.815946
H      -0.425953    2.868992   -0.402970
H      -0.703249    0.827874    1.283752
H      -0.249754   -0.788732    0.730879
H       1.006554    0.383467    1.160745
H      -1.362206    0.962575   -2.430222
H      -1.672701   -0.432527   -1.384995
H      -2.101194    1.194795   -0.834879
H       0.583989   -1.140332   -1.586424
H       2.890572    2.032981   -1.443774
H       3.724017    0.872702   -0.389624
H       4.241840    1.082840   -2.064352
H       3.901884   -1.217589   -2.921790
H       3.658997   -1.726984   -1.244570
H       2.446264   -2.127297   -2.480061
