19

C       0.010692    1.505813    0.030185
C      -0.026267   -0.007122   -0.005392
C       0.611719   -0.668150   -1.259000
O       0.134853   -2.021843   -1.256201
C      -0.714589   -2.144087   -0.104459
C       0.180918   -2.167377    1.145918
C       0.668836   -0.706676    1.176439
O       1.434056   -0.206582    1.958020
C      -1.380701   -0.762017   -0.011675
H       1.043394    1.863144    0.085066
H      -0.459079    1.935307   -0.860400
H      -0.510937    1.888826    0.912083
H       0.276927   -0.157546   -2.172263
H       1.707976   -0.655060   -1.237552
H      -1.360583   -3.010371   -0.243791
H      -0.376900   -2.394824    2.061560
H       1.015328   -2.868536    1.069009
H      -1.964733   -0.613597    0.901088
H      -1.996512   -0.529415   -0.884186
