20

O      -0.041462    1.490410    0.235639
C       0.009301    0.078864    0.371654
C      -1.346962   -0.504795    0.009246
C      -2.562937    0.276721    0.342590
N      -2.113096    0.145996   -1.059976
C      -1.362600   -2.016368    0.014961
C      -2.619493   -2.761927   -0.485736
O      -1.838879   -3.538573   -1.419523
C      -0.660271   -2.758396   -1.149681
H       0.843054    1.842855    0.364043
H       0.775095   -0.350661   -0.294787
H       0.267806   -0.215158    1.401597
H      -3.492051   -0.237294    0.575040
H      -2.428848    1.236112    0.831254
H      -1.633751    1.005188   -1.321471
H      -1.030371   -2.380717    0.992585
H      -3.136580   -3.396564    0.242948
H      -3.341571   -2.119186   -1.001586
H      -0.398227   -2.108368   -1.995788
H       0.200998   -3.387478   -0.894969
