15

C       0.019158    1.413661    0.051441
C       1.499439    1.920016   -0.098166
C       2.198685    0.608380    0.045005
C       1.338885   -0.434467   -0.120368
N       0.015218   -0.020913   -0.357354
N       1.969433   -1.642120   -0.152849
C       3.248327   -1.322458   -0.019860
N       3.451087    0.029946    0.073358
H      -0.280491    1.520123    1.103535
H      -0.677383    1.990035   -0.562435
H       1.662377    2.377886   -1.084668
H       1.731942    2.679958    0.655218
H      -0.689263   -0.565218    0.126240
H       4.066422   -2.024900    0.033428
H       4.337751    0.483766    0.210549
