12

O      -0.010207    1.423175    0.008950
C       0.003200    0.004456    0.002103
C      -1.415210   -0.463489    0.012186
C      -2.570027    0.280045    0.023409
N      -3.550292   -0.655356    0.029407
N      -3.047832   -1.902002    0.020718
N      -1.750192   -1.785068    0.011041
H       0.900203    1.730850    0.001901
H       0.514203   -0.393312   -0.888555
H       0.529528   -0.401846    0.879871
H      -2.755623    1.339092    0.027985
H      -4.549383   -0.527220    0.038419
