19

C      -0.126066    1.546300    0.031682
C       0.005017    0.022106   -0.017982
C       0.728084   -0.474515   -1.274724
C       0.837172   -2.003389   -1.241771
C       1.382550   -2.536035    0.062955
N       2.103265   -3.576347    0.101489
O       0.968982   -1.913480    1.209670
C       0.763221   -0.493254    1.203329
H       0.858197    2.028584    0.019830
H      -0.686728    1.916103   -0.832298
H      -0.649154    1.875787    0.935645
H      -1.000643   -0.421244   -0.001010
H       0.201063   -0.153994   -2.179696
H       1.729944   -0.025228   -1.316581
H      -0.166482   -2.432652   -1.367386
H       1.455636   -2.396721   -2.049913
H       2.335751   -3.797355    1.072761
H       1.743675    0.003414    1.265219
H       0.222206   -0.280386    2.129427
