15

O       1.609491    0.555786    0.943125
C       2.688640    0.134422    0.226837
C       4.076719    0.558832    0.611622
C       3.580158    1.080435   -0.706188
C       4.180438   -0.179744   -1.314165
N       3.333001   -1.029300   -1.806664
C       2.862380   -1.401821   -0.435301
C       4.148919   -1.808046    0.284904
N       4.853370   -0.528567   -0.049682
H       0.819858    0.470230    0.395146
H       4.420129    1.047437    1.514540
H       3.304345    2.060203   -1.065273
H       1.969958   -2.028135   -0.424515
H       4.650747   -2.664690   -0.166901
H       4.074985   -1.924603    1.367389
