14

N      -0.045557    1.250276    0.087408
C      -0.048920   -0.001232    0.011618
C      -1.266449   -0.899696   -0.007938
C      -0.671463   -2.288817    0.057275
C      -1.212542   -3.463290    0.760862
O      -1.249381   -3.368389   -0.659712
C       0.825840   -2.124985   -0.071336
O       1.670027   -2.959707   -0.149525
O       1.107817   -0.773737   -0.071230
H       0.905830    1.621144    0.078232
H      -1.937061   -0.654665    0.817428
H      -1.818992   -0.759287   -0.941958
H      -0.522499   -4.203969    1.159280
H      -2.172265   -3.367340    1.266187
