19

C      -0.075312    1.438286    0.006782
C       0.037317   -0.074465   -0.014780
C       0.690651   -0.656780   -1.239154
C       1.452105   -0.599645    0.065335
N       1.735531   -2.089441    0.068599
C       0.507818   -2.926224    0.033493
C      -0.715972   -2.844551    0.939151
C       0.895825   -2.180260   -1.190718
H       0.787749    1.907583   -0.477665
H      -0.974613    1.772831   -0.521494
H      -0.127541    1.814625    1.033834
H      -0.790492   -0.575374    0.463490
H       0.843885   -0.085079   -2.145491
H       2.275010    0.035019    0.370689
H       0.860119   -3.954663   -0.049558
H      -0.541906   -2.194432    1.799897
H      -1.608789   -2.493369    0.414793
H      -0.938812   -3.842197    1.327846
H       1.283758   -2.705225   -2.060399
