19

O       0.020422    0.090552   -0.519775
C      -0.033079    1.209633   -0.107427
C      -1.144284    2.137848    0.408222
N      -0.079519    3.055218    0.897669
C       1.002668    2.309325    0.188077
C       2.218511    1.930756    1.020716
N       3.087496    3.084590    1.218996
C       2.792192    3.914861    2.387654
C       3.980342    3.019982    2.372618
H      -1.771827    2.522469   -0.407948
H      -1.796044    1.731141    1.189132
H      -0.187578    4.012059    0.584041
H       1.340810    2.789341   -0.742183
H       1.876908    1.489238    1.973281
H       2.781784    1.161418    0.478842
H       2.910564    4.985234    2.244419
H       1.949251    3.626498    3.010680
H       3.941169    2.128735    2.996857
H       4.976792    3.424162    2.219463
