25

C      -0.445272    1.634773   -0.105815
C      -0.134956    0.134776   -0.108570
C       0.406167   -0.360491    1.239154
C       0.838017   -1.831111    1.274556
C      -0.334676   -2.784113    1.014988
C       2.096785   -2.199051    0.419543
C       2.641517   -3.007858    1.625358
O       4.017286   -2.991665    1.916120
C       1.647665   -2.251979    2.545062
H       0.450950    2.224888    0.116571
H      -0.829361    1.965716   -1.075831
H      -1.197421    1.882310    0.651746
H      -1.042645   -0.419717   -0.374241
H       0.597723   -0.085090   -0.896262
H       1.268497    0.260930    1.518486
H      -0.351498   -0.191373    2.018418
H      -0.747187   -2.653506    0.009522
H      -0.029174   -3.831489    1.106697
H      -1.143308   -2.612260    1.735089
H       1.945160   -2.726808   -0.525895
H       2.722516   -1.318490    0.230503
H       2.382102   -4.066707    1.543481
H       4.290533   -2.072077    2.001118
H       2.133447   -1.387742    3.013149
H       1.128111   -2.821733    3.320491
