13

N      -0.083695    1.291731    0.006667
C      -0.004959    0.033021   -0.000160
N      -1.105626   -0.847723    0.001737
C      -2.453088   -0.499626    0.011264
O      -3.339913   -1.315633    0.012226
C      -0.629365   -2.161801   -0.007733
C       0.718843   -2.234551   -0.015931
C       1.242345   -0.868325   -0.011733
O       2.370608   -0.432974   -0.016278
H       0.868170    1.671832    0.003177
H      -2.589135    0.591398    0.017622
H      -1.368435   -2.950206   -0.007560
H       1.311624   -3.135326   -0.024080
