19

C       1.423358    1.743628   -0.681752
O       1.075238    0.354168   -0.631541
C       0.442320   -0.117327   -1.724489
O       0.147801    0.562608   -2.674656
C       0.181448   -1.607290   -1.608951
C       1.173442   -2.388412   -2.457968
O       2.514642   -2.185275   -2.098868
C       0.785070   -3.737362   -3.011696
C       0.948983   -2.536724   -3.927593
H       2.100292    1.939025   -1.517119
H       0.529725    2.361080   -0.802645
H       1.913818    1.962068    0.266965
H       0.252244   -1.918872   -0.561649
H      -0.835346   -1.799345   -1.960715
H       2.642747   -2.534314   -1.209332
H       1.564739   -4.490131   -3.040594
H      -0.212946   -4.118239   -2.822096
H       0.067181   -2.079927   -4.360433
H       1.833795   -2.506655   -4.552129
