21

C       0.440801    1.348534   -0.050300
C       0.131713   -0.116764   -0.033874
C       0.053643   -0.928740   -1.090872
C      -0.336168   -2.337348   -0.731516
C      -0.338592   -2.341393    0.819071
O       0.772441   -3.059632    1.361809
C       1.769998   -2.138010    1.783262
C       0.996284   -0.911279    2.268693
C      -0.171818   -0.852699    1.258783
H       1.335416    1.584518    0.539374
H       0.605792    1.710912   -1.068623
H      -0.380351    1.930384    0.388540
H       0.220850   -0.613152   -2.116457
H      -1.323337   -2.596371   -1.137959
H       0.362547   -3.095562   -1.103412
H      -1.240401   -2.813879    1.219511
H       2.366062   -2.622173    2.562221
H       2.440206   -1.874224    0.950211
H       0.614545   -1.083915    3.279714
H       1.601385   -0.001075    2.285201
H      -1.074261   -0.448368    1.732143
