21

O      -0.143219    1.436509   -0.291659
C       0.002253    0.051824   -0.014902
C      -1.376762   -0.589467   -0.084872
C      -1.348114   -2.092009    0.215830
C      -2.725792   -2.722646    0.130635
O      -3.340598   -2.625880   -1.194114
C      -3.636464   -4.023911   -1.169326
C      -2.382552   -4.835831   -1.161940
C      -2.906189   -4.242241    0.133401
H       0.728273    1.841736   -0.265259
H       0.674225   -0.432284   -0.742992
H       0.438523   -0.110602    0.985264
H      -2.035857   -0.074289    0.624888
H      -1.796521   -0.423830   -1.082530
H      -0.669889   -2.601282   -0.478837
H      -0.958750   -2.269899    1.228143
H      -3.400862   -2.251357    0.858520
H      -4.605124   -4.345371   -1.533611
H      -2.519614   -5.910136   -1.240070
H      -1.490034   -4.450545   -1.645869
H      -3.163105   -4.843678    0.994654
