25

C      -0.120767    1.723029   -0.016178
C       0.007564    0.214017    0.014597
C       1.245152   -0.572650   -0.356216
C       0.734416   -0.587012    1.071962
C       1.759101    0.089350    1.980651
C       2.382533   -0.925436    2.949606
C       2.811470    0.724767    1.022507
C       2.609323    0.113365   -0.396853
C       3.712289   -0.887842   -0.768855
H       0.782353    2.240256    0.312021
H      -0.345693    2.070379   -1.031068
H      -0.940469    2.053718    0.631880
H      -0.906936   -0.274774   -0.317332
H       1.111239   -1.432285   -1.006414
H       0.224009   -1.457231    1.474295
H       1.286268    0.876462    2.582020
H       2.863856   -1.746951    2.406800
H       3.141999   -0.451690    3.580525
H       1.625136   -1.362534    3.609428
H       2.700909    1.811884    0.993948
H       3.828168    0.536089    1.384188
H       2.619920    0.914142   -1.147455
H       3.745540   -1.722065   -0.058810
H       3.547808   -1.308119   -1.767044
H       4.696560   -0.407752   -0.766514
