18

C       0.260206    1.415506    0.375817
C      -0.096774   -0.025114   -0.010421
O      -1.494272   -0.195001   -0.174634
C       0.661905   -0.500441   -1.249691
C       2.110769   -0.950058   -1.118741
C       1.058381   -1.973881   -1.363114
C       0.280086    0.114721   -2.538949
O      -0.646434    0.880557   -2.696446
H       1.328668    1.516583    0.593362
H       0.005928    2.107814   -0.431619
H      -0.304293    1.703223    1.266673
H       0.178377   -0.686965    0.820700
H      -1.738091    0.349725   -0.935356
H       2.795824   -0.705231   -1.924110
H       2.542749   -0.873332   -0.126896
H       0.734915   -2.607500   -0.545375
H       1.007894   -2.441588   -2.340629
H       0.908787   -0.194354   -3.405786
