13

O      -0.119850    0.216843    0.526301
C      -0.010355    1.317684    0.106071
O      -0.999643    2.149454   -0.374717
C      -0.052859    3.225443   -0.683334
C      -0.141874    4.401995    0.264369
C       0.882396    4.107190    1.364749
O       1.103096    4.728568    2.355009
O       1.594195    2.971430    1.044734
C       1.105941    2.362000   -0.135236
H      -0.078029    3.457105   -1.746551
H       0.124363    5.347873   -0.215408
H      -1.135904    4.516420    0.701494
H       1.935564    2.063299   -0.774970
