16

C       0.104229    1.443418   -0.332013
C       1.406148    2.018098    0.307417
C       2.148127    0.767411    0.684916
C       3.372982    0.308532    1.037766
O       3.312035   -1.040241    1.257207
C       2.020698   -1.436073    1.040825
C       1.270282   -0.365113    0.686901
C      -0.126558    0.040727    0.310885
H      -0.754175    2.109002   -0.209059
H       0.266047    1.316103   -1.407550
H       1.948804    2.672608   -0.380833
H       1.170752    2.617201    1.196764
H       4.345612    0.752980    1.168837
H       1.833053   -2.488516    1.174521
H      -0.763924    0.121242    1.201141
H      -0.626240   -0.649502   -0.375007
