17

C      -0.365527    1.137291   -0.077938
O       0.579282    0.084370   -0.211928
C       0.952450   -0.499860    0.975939
C       0.739166   -1.831409    1.241324
O       0.144340   -2.805586    0.508190
N       1.279985   -2.113971    2.460290
C       1.839919   -0.966067    3.000153
N       2.450262   -1.058016    4.273535
C       1.653462    0.053080    2.093806
H       0.046334    1.976694    0.497112
H      -0.602742    1.481891   -1.087641
H      -1.282801    0.791786    0.417749
H      -0.093057   -2.398968   -0.334124
H       1.290962   -3.013321    2.909805
H       3.429348   -0.793991    4.242081
H       1.998741   -0.456408    4.954647
H       1.983231    1.073816    2.211868
