16

C      -0.995040    1.361406    0.382641
C      -0.266095    0.084085    0.121679
C       0.400149   -0.340079   -1.010837
C       0.631122    0.300973   -2.351191
C       1.408023   -0.533852   -3.262469
C       2.049354   -1.243718   -3.989677
N       0.860557   -1.566181   -0.671440
N       0.515760   -1.901574    0.582063
N      -0.167515   -0.900349    1.062593
H      -0.338722    2.234666    0.292589
H      -1.830054    1.507170   -0.312311
H      -1.397539    1.342714    1.397417
H      -0.335437    0.543464   -2.813307
H       1.141505    1.263957   -2.214197
H       2.614855   -1.851929   -4.652237
H       1.400754   -2.197910   -1.243448
