21

C       0.037848    1.565908    0.190927
C      -0.031153    0.058936    0.091514
C       1.172400   -0.741062   -0.374217
C       0.739546   -0.803550    1.069859
O       1.565921   -0.147067    2.011273
C       1.510349   -0.842182    3.257541
C       0.626188   -2.027688    3.000237
C       0.183715   -2.008588    1.742842
C      -0.717201   -2.988151    1.063167
H       1.002921    1.883341    0.592616
H      -0.100034    2.032596   -0.790657
H      -0.740077    1.952363    0.858474
H      -0.997886   -0.333987   -0.215432
H       1.021848   -1.603760   -1.015169
H       2.088881   -0.190412   -0.560625
H       2.529879   -1.125075    3.563100
H       1.112042   -0.176133    4.040251
H       0.394808   -2.771990    3.751902
H      -0.999604   -3.798318    1.739703
H      -1.637357   -2.508420    0.708415
H      -0.233426   -3.433127    0.185300
