9

O       0.113333    1.346638    0.135268
C       0.073037    0.007786    0.069924
N       0.108092   -0.634086   -1.073602
O       0.047249   -1.987190   -0.728135
C      -0.021260   -2.088837    0.606071
C      -0.010212   -0.865968    1.190679
H       0.168517    1.682765   -0.769543
H      -0.072989   -3.093570    0.997018
H      -0.052996   -0.609803    2.234843
