16

C      -0.037794    1.424246    0.192961
N       0.039800   -0.016312    0.025371
C       0.544301   -0.538135   -0.996396
O       0.595526   -1.896462   -1.133815
C       1.258422   -2.236083   -2.343110
C       0.394499   -3.129043   -3.203681
O       1.547547   -1.008044   -3.016921
C       1.163759    0.043023   -2.251924
O       1.311202    1.184222   -2.576467
H       0.482666    1.687775    1.120540
H       0.373640    2.007880   -0.633106
H      -1.089444    1.693991    0.341474
H       2.216298   -2.710341   -2.095162
H      -0.543817   -2.622990   -3.444435
H       0.920793   -3.374380   -4.129434
H       0.174670   -4.053005   -2.663153
