19

C       0.089773   -1.143565   -0.376759
C       0.002597    0.049699   -0.228351
C      -0.035117    1.455436   -0.059606
C      -1.127714    2.205170    0.159456
C      -0.792669    3.661759    0.347461
C       0.697313    3.750526   -0.077879
C       1.205501    2.302571   -0.071606
C       2.432366    1.871014    0.706450
C       2.457034    1.885808   -0.799663
H       0.143493   -2.196202   -0.504592
H      -2.133981    1.811537    0.237098
H      -1.435900    4.322403   -0.244753
H      -0.940286    3.955569    1.396563
H       0.766810    4.160153   -1.091522
H       1.283204    4.402031    0.575872
H       2.981604    2.639873    1.240249
H       2.404247    0.906800    1.202658
H       2.448195    0.931361   -1.315207
H       3.025959    2.664579   -1.297824
