21

C       0.070004    1.558883    0.028406
C       0.013878    0.020966    0.038960
C       0.635405   -0.529423    1.335369
C      -1.446237   -0.446253   -0.099463
C       0.814186   -0.554689   -1.141671
O       0.399701   -0.074657   -2.450166
C       1.709488    0.410385   -2.806056
C       2.225067   -0.015062   -1.426734
O       3.256207    0.059101   -0.830163
H       1.092367    1.925597    0.169255
H      -0.313251    1.953922   -0.916707
H      -0.541450    1.967387    0.838977
H       0.102331   -0.135871    2.206850
H       0.573224   -1.622707    1.372998
H       1.689095   -0.248081    1.422275
H      -1.876440   -0.105362   -1.045447
H      -1.517006   -1.539095   -0.067997
H      -2.055360   -0.046685    0.718256
H       0.788444   -1.654559   -1.105336
H       2.152462   -0.129296   -3.653003
H       1.728891    1.488392   -3.008807
