13

O       0.082941    1.298911    0.122669
C       0.069785   -0.034900    0.015654
N       0.093589   -0.715894   -1.109746
C       0.064726   -2.012320   -0.650704
C       0.024177   -2.112478    0.729855
N       0.028081   -0.784101    1.160531
C      -0.000770   -3.486496    1.021853
N       0.023129   -4.188454   -0.116739
N       0.063128   -3.277948   -1.129253
H       0.112871    1.645910   -0.778236
H       0.006044   -0.414688    2.094383
H      -0.033970   -4.007723    1.965801
H       0.085938   -3.603903   -2.079079
