17

O      -0.402083    1.185050   -0.528583
C      -0.073352   -0.086477   -0.030641
C      -0.303677   -0.336304    1.452616
C      -1.265649   -0.884940    0.430290
C       1.025327   -0.746134   -0.687985
C       1.975588   -1.248687   -1.234436
C       3.067400   -1.913311   -1.929157
C       2.577634   -3.058929   -2.819824
O       3.156602   -4.103738   -2.938029
H       0.365404    1.754409   -0.401702
H       0.360167   -1.022042    1.965631
H      -0.622003    0.526763    2.026122
H      -2.221814   -0.386687    0.320857
H      -1.269075   -1.950162    0.234995
H       3.579360   -1.197386   -2.590841
H       3.824355   -2.310405   -1.244688
H       1.634389   -2.838928   -3.365030
