17

O       0.111567   -0.065597   -0.208273
C       0.137827    1.119463   -0.325162
O       1.000577    1.897541    0.381445
C       0.900409    3.267169    0.218895
C       0.808975    4.184839   -0.972480
C      -0.373173    4.939538   -0.366698
C       0.103092    4.398028    1.011643
C       1.469203    5.105849    1.238679
C       1.979263    4.288877    0.052842
H      -0.499867    1.712102   -1.005378
H       1.021964    3.967543   -2.011115
H      -0.408437    6.028433   -0.479019
H      -1.329000    4.507014   -0.674774
H      -0.597255    4.245251    1.829248
H       1.476772    6.198751    1.168595
H       1.944908    4.790097    2.170460
H       2.996364    4.121139   -0.276140
