17

N       0.645651    0.216867   -0.397364
C       0.051039   -0.268893    0.704873
O       0.225974    0.062262    1.844028
O      -0.903328   -1.290187    0.480804
C      -1.256708   -1.871068   -0.695501
N      -0.760148   -1.541021   -1.817647
C      -2.280903   -2.944912   -0.424653
C      -1.698779   -4.125566    0.379650
O      -2.664441   -5.134875    0.599291
H       1.337252    0.932707   -0.258190
H       0.420684   -0.176351   -1.307366
H      -1.156116   -2.097373   -2.569827
H      -3.103655   -2.499990    0.147476
H      -2.686591   -3.316788   -1.369037
H      -0.893393   -4.597020   -0.193134
H      -1.266792   -3.753347    1.317090
H      -3.284790   -4.816304    1.262670
