18

C      -0.001942    1.484542    0.166322
C       1.517811    1.604660   -0.237736
C       1.359402    0.201497   -0.788087
O       2.279869   -0.857732   -1.063554
C       1.300769   -1.444460   -1.970437
C       0.062426   -2.068244   -1.275933
N      -0.624357   -0.721680   -1.111604
C       0.087570   -0.072625    0.036428
C       0.480344   -0.142539   -2.017179
H      -0.256779    1.855541    1.159228
H      -0.680528    1.929365   -0.564417
H       1.819251    2.403445   -0.920059
H       2.157719    1.627539    0.649672
H       1.777270   -1.964339   -2.801888
H      -0.513100   -2.678469   -1.978796
H       0.222691   -2.628234   -0.350057
H       0.070008   -0.624309    0.978678
H       0.248519    0.481316   -2.878070
