16

C      -0.030688    1.499156    0.109071
C      -0.007987    0.010640    0.002598
C      -0.019070   -0.745488   -1.117777
C       0.011841   -2.187169   -0.794428
O       0.010743   -3.111925   -1.573541
C       0.046217   -2.301313    0.739830
C       0.031622   -0.863800    1.183656
N       0.048416   -0.371035    2.364500
O       0.085637   -1.373925    3.331207
H       0.850292    1.856692    0.652385
H      -0.058199    1.970604   -0.875258
H      -0.900857    1.827449    0.687186
H      -0.046711   -0.380431   -2.136661
H      -0.815191   -2.863988    1.113006
H       0.940944   -2.834665    1.075819
H       0.094747   -0.873360    4.154922
