19

C       0.480387    1.635948   -0.243349
C       0.050525    0.203708    0.099795
N       0.347672   -0.736213   -0.971402
C       1.435683   -1.550019   -0.768731
O       1.908774   -2.311951   -1.580672
C       1.921670   -1.282750    0.658962
C       0.825486   -0.428030    1.271785
C       0.895713    0.213252    2.601997
N       0.101048   -1.016374    2.409333
H       1.560895    1.689323   -0.408445
H      -0.018746    1.979881   -1.155477
H       0.218154    2.328144    0.562342
H      -1.026043    0.197439    0.319877
H      -0.045443   -0.651278   -1.896197
H       2.070522   -2.215000    1.205574
H       2.884951   -0.763148    0.603234
H       1.784548    0.093853    3.215970
H       0.371514    1.154247    2.752424
H      -0.888101   -0.781087    2.360600
