19

C      -0.797903    0.462535    0.447593
O       0.206647    0.815499   -0.492259
C       0.574219   -0.169323   -1.333403
C       0.206759   -1.493593   -1.473104
C       0.992706   -1.951450   -2.561473
C       1.012932   -3.317819   -3.170687
N       1.772445   -0.990533   -3.044041
N       1.499967    0.106399   -2.282812
C       2.214242    1.344226   -2.489988
H      -1.718900    0.151402   -0.059956
H      -0.455841   -0.349308    1.100742
H      -0.990480    1.355484    1.043416
H      -0.515237   -2.043496   -0.893633
H       0.029410   -3.597147   -3.565257
H       1.733463   -3.345077   -3.990969
H       1.295335   -4.080855   -2.436583
H       2.353225    1.491825   -3.562289
H       1.628474    2.166448   -2.076669
H       3.196636    1.326820   -2.004525
