19

C       0.393951    0.732212    1.320074
C       0.108292   -0.006318    0.022026
O       0.846854    0.082494   -0.934826
C      -1.166453   -0.828559    0.009559
C      -1.523931   -1.622703   -1.296375
C      -0.478902   -2.692126   -0.820734
C      -1.073035   -2.312511    0.576303
C      -2.534257   -2.744768    0.382021
C      -2.826572   -2.297327   -0.842981
H       1.391068    1.172715    1.284926
H      -0.346848    1.528025    1.462435
H       0.307117    0.062081    2.182007
H      -1.978463   -0.243777    0.454089
H      -1.470432   -1.155266   -2.277458
H      -0.635004   -3.719469   -1.155651
H       0.554575   -2.376048   -0.969278
H      -0.573643   -2.544717    1.517145
H      -3.140823   -3.283954    1.095633
H      -3.743316   -2.367786   -1.410718
