15

C      -0.083513    1.564462    0.000417
C       0.080647    0.061148   -0.062445
C       0.594710   -0.720632   -1.229908
N       1.330688   -0.683262    0.125776
C       2.435488    0.149857   -0.488194
C       3.728150   -0.508903   -0.414074
N       4.763590   -1.020205   -0.378526
C       1.734981   -0.013089   -1.886682
O       2.090381    0.161403   -3.009363
H       0.601518    2.114125   -0.647360
H      -1.099849    1.822327   -0.311632
H       0.048041    1.918083    1.028271
H      -0.718937   -0.469780    0.451638
H       0.094673   -1.601058   -1.617165
H       2.514229    1.162021   -0.084614
