21

C      -0.054076    1.554018   -0.088183
C       0.027179    0.056927   -0.020993
C      -0.875011   -0.792330    0.825263
C       0.612037   -0.850878    1.075476
C       1.278308   -1.720297    0.021782
C       2.798293   -1.983383    0.067650
C       2.400997   -3.471223    0.072279
O       0.999929   -3.139123    0.020154
C       0.654025   -0.838879   -1.102291
H       0.909600    1.995794   -0.367558
H      -0.793011    1.878639   -0.831119
H      -0.350404    1.978473    0.876834
H      -1.440366   -0.261313    1.585287
H      -1.387730   -1.655311    0.407801
H       1.041420   -0.590618    2.037356
H       3.353613   -1.645545   -0.809559
H       3.300364   -1.627129    0.969596
H       2.717641   -4.054946   -0.800692
H       2.656513   -4.029063    0.981416
H      -0.044564   -1.352821   -1.770436
H       1.419024   -0.335881   -1.701636
