18

O       0.212924    1.353468   -0.376800
C       0.114319    0.110609    0.303704
C      -1.221314   -0.541180    0.097350
C      -2.563189   -0.175800    0.768828
C      -2.971023   -1.687835    0.730178
C      -1.628108   -2.009527    0.054187
N      -1.471522   -1.238128   -1.152829
C      -2.443447   -0.970526   -2.104132
O      -3.243281   -1.770783   -2.520334
H       0.181649    1.163659   -1.320821
H       0.907412   -0.586070   -0.004574
H       0.257957    0.337747    1.365000
H      -2.426667    0.190186    1.788705
H      -3.192740    0.534065    0.227061
H      -3.046468   -2.119166    1.729928
H      -3.856239   -1.957079    0.151526
H      -1.020998   -2.898502    0.183157
H      -2.354291    0.061090   -2.500442
