20

C      -0.045183    1.560182    0.110490
C       0.008177    0.038520    0.015908
C      -1.372649   -0.567302   -0.232974
C       1.092747   -0.564324   -0.962382
C       1.722006   -1.301515    0.230959
N       2.129502   -0.226388    1.188738
C       0.730887   -0.683504    1.174165
C       2.330565   -2.584457    0.245544
C       2.847585   -3.671965    0.235066
H       0.941112    1.965697    0.347316
H      -0.381883    1.996456   -0.836839
H      -0.746510    1.880334    0.889895
H      -1.787434   -0.210755   -1.182070
H      -1.329019   -1.661031   -0.273755
H      -2.072274   -0.288094    0.563433
H       0.660400   -1.237071   -1.705289
H       1.760925    0.149627   -1.448842
H       2.594243   -0.689176    1.970092
H       0.274871   -1.115690    2.058441
H       3.302387   -4.631254    0.228785
