17

N       0.200082   -1.201835    0.249142
C       0.066269   -0.059320    0.133057
C      -0.091568    1.390364    0.003730
C      -0.743214    1.996204    1.275774
C       0.449211    2.251077    2.202010
C       1.528938    2.833928    1.251160
C       1.297479    2.103733   -0.114633
C       1.378199    4.283247    1.109647
N       1.243400    5.425598    0.993098
H      -0.703195    1.576937   -0.882958
H      -1.221647    2.943715    1.007507
H      -1.502154    1.343625    1.710448
H       0.220074    2.916766    3.035768
H       0.816978    1.305047    2.612414
H       2.536504    2.643316    1.630095
H       2.094209    1.383253   -0.302157
H       1.293500    2.812525   -0.943261
