18

C       1.266259    0.979810   -0.443915
C       0.120988    0.206236    0.164624
N       0.249647   -1.250078    0.283527
C       0.116919   -0.441673    1.511245
C       1.263100   -0.444207    2.499794
C       2.612556   -1.080999    2.125580
C       3.158362    0.328027    2.345728
O       4.205991    0.888138    2.314508
O       1.930649    0.868774    2.643703
H       2.235506    0.535251   -0.214139
H       1.161948    0.998211   -1.534081
H       1.270463    2.012068   -0.082996
H      -0.857836    0.580480   -0.136077
H      -0.622520   -1.724598    0.069088
H      -0.855989   -0.457698    1.998591
H       0.898445   -0.744579    3.485405
H       3.003162   -1.830902    2.814973
H       2.677261   -1.448291    1.101602
