20

C      -0.203856    1.557671    0.222127
C      -0.143554    0.050073    0.256748
N       1.058548   -0.589885   -0.304574
C       0.786266   -0.724628    1.136199
C       1.708290   -0.127538    2.137789
C       1.634936   -0.769384    3.305565
C       0.637976   -1.904163    3.265208
C       0.372277   -2.078714    1.748119
O      -0.913978   -2.548358    1.397921
H       0.780198    1.994996    0.406160
H      -0.545959    1.905472   -0.758628
H      -0.899535    1.940782    0.976889
H      -1.087260   -0.452639    0.049431
H       0.798184   -1.454712   -0.776388
H       2.339226    0.723876    1.915179
H       2.194777   -0.512437    4.197518
H       0.997482   -2.825046    3.735556
H      -0.294185   -1.634449    3.785710
H       1.057364   -2.841308    1.357321
H      -1.560932   -1.949898    1.788091
