20

C      -0.094826    1.525689    0.006087
C      -0.097434    0.015988    0.092375
C      -1.211148   -0.684353   -0.652054
O       1.213933   -0.596370   -0.058861
C       0.579009   -0.654253    1.205583
C       1.271876   -0.120695    2.485744
C       0.933873   -1.466490    3.147346
N      -0.540700   -1.599414    3.089648
C       0.285369   -1.971988    1.904688
H       0.754615    1.948417    0.546768
H      -0.030991    1.849427   -1.038797
H      -1.017766    1.936660    0.429144
H      -1.178351   -0.431797   -1.717728
H      -1.127707   -1.768779   -0.554902
H      -2.186652   -0.375054   -0.262139
H       2.341957    0.012235    2.308689
H       0.850868    0.766917    2.963962
H       1.514872   -2.001034    3.887735
H      -0.781856   -2.471985    3.560633
H       0.254254   -2.965880    1.476815
