19

C       0.042208    1.566056    0.104114
C      -0.010862    0.036643    0.016524
C      -1.406900   -0.517605   -0.055089
C      -1.651769   -2.042297   -0.091736
C      -3.209085   -2.049200    0.072913
C      -3.426642   -0.528032    0.155695
O      -2.330035   -0.094888    1.023720
C      -2.533947    0.011955   -0.980798
O      -2.634953    0.698676   -1.949729
H       1.077151    1.911970    0.175467
H      -0.410710    2.023911   -0.779610
H      -0.500522    1.920339    0.984121
H       0.525841   -0.313768   -0.874043
H       0.498386   -0.414463    0.877994
H      -1.312393   -2.495619   -1.027259
H      -1.140617   -2.534878    0.739059
H      -3.735589   -2.504840   -0.770093
H      -3.529362   -2.541946    0.993113
H      -4.400152   -0.119849    0.419057
