17

C      -0.047039    1.537888   -0.044628
C       1.452124    1.905634    0.058667
C       2.216852    0.951030    0.621995
C       1.278208   -0.131202    1.096045
C       0.831753   -1.622637    0.821500
O      -0.555166   -1.078372    0.772969
C       0.140555    0.038285    0.087490
C       0.676553   -0.686835   -1.168808
C       1.142296   -1.825054   -0.659771
H      -0.612455    1.973066    0.789165
H      -0.506142    1.872888   -0.979770
H       1.816530    2.872760   -0.271139
H       3.278028    1.043525    0.820372
H       0.933225    0.104531    2.111026
H       0.953144   -2.429405    1.542634
H       0.648096   -0.311966   -2.181560
H       1.621781   -2.676818   -1.118153
