21

C      -0.427318    1.450546   -0.005305
C       0.148785    0.037603    0.040706
O      -0.894627   -0.915927    0.296156
C       0.935034   -0.375156   -1.216626
C       1.686701   -1.642500   -0.779187
C       2.035624   -1.412918    0.726541
C       1.172816   -0.191089    1.165246
C       1.704573   -2.645115    1.538924
O       2.501768   -3.309234    2.150462
H       0.357955    2.196925   -0.160783
H      -1.147412    1.549767   -0.826341
H      -0.948453    1.680849    0.928431
H      -1.509267   -0.889401   -0.445340
H       0.281331   -0.536452   -2.081184
H       1.639329    0.421431   -1.484994
H       1.028184   -2.511618   -0.880382
H       2.580004   -1.842559   -1.374524
H       3.100612   -1.210927    0.860706
H       1.809493    0.690669    1.276833
H       0.658421   -0.347953    2.117984
H       0.620994   -2.905070    1.522433
