12

O       0.777445    0.036193    0.147801
C       0.900682    1.043926   -0.490169
C       0.703731    2.427933    0.119859
O       1.048411    3.475038   -0.796147
C       2.358079    3.625482   -1.018963
O       3.235414    2.954387   -0.536591
C       2.662658    4.778644   -1.982322
O       1.828849    5.458638   -2.507884
H       1.136619    1.044734   -1.577181
H      -0.355100    2.575958    0.346019
H       1.289430    2.502718    1.039619
H       3.753181    4.899610   -2.133868
