21

C       0.250229    1.517858   -0.015449
C       0.047839    0.012227    0.006778
O      -1.329975   -0.329331   -0.088215
C       0.932063   -0.857215   -0.955268
C       1.454286   -1.690661    0.244165
C       2.691351   -1.090817    0.919716
O       1.884949   -0.158032    1.676566
C       0.649708   -0.772850    1.220176
C      -0.242369   -1.198116    2.354302
H       1.290805    1.774177    0.191820
H      -0.019250    1.926116   -0.997944
H      -0.382042    1.996931    0.738666
H      -1.674092    0.063001   -0.898059
H       0.316611   -1.428900   -1.653150
H       1.703936   -0.320323   -1.514957
H       1.357347   -2.774280    0.198858
H       3.231289   -1.776527    1.585865
H       3.415143   -0.584889    0.267802
H      -0.536481   -0.325202    2.947697
H      -1.148793   -1.673156    1.974481
H       0.284873   -1.893806    3.014161
