17

C      -0.125329    1.523694   -0.051925
C      -0.002308    0.019294    0.026161
C       1.321713   -0.663907   -0.219616
C       0.736905   -0.662208    1.162210
N       1.363753    0.112510    2.197487
N       0.852787    0.186881    3.422441
C       1.716075    1.002520    4.015584
N       2.702434    1.412053    3.190084
N       2.468178    0.833949    2.035844
H       0.781177    2.019267    0.305208
H      -0.291037    1.838045   -1.087332
H      -0.968148    1.882131    0.548026
H      -0.885542   -0.525838   -0.295978
H       1.348636   -1.612198   -0.744057
H       2.184104   -0.028140   -0.379611
H       0.323371   -1.573351    1.574270
H       1.634160    1.299572    5.048444
