19

C      -0.111363    1.497976    0.026032
C       0.098146   -0.013840    0.048521
C       1.038058   -0.618566   -1.029545
C       2.411176    0.030467   -0.717847
C       2.318549   -0.805041    0.565905
C       1.530363   -1.917528   -0.255369
C       0.681723   -2.087376    0.991570
O       0.236637   -3.014034    1.605189
C       0.898637   -0.590756    1.255950
H       0.809430    2.056425    0.212519
H      -0.511337    1.820322   -0.942221
H      -0.832003    1.791789    0.795946
H      -0.887444   -0.492938   -0.005645
H       0.656511   -0.684689   -2.048612
H       3.197034   -0.357471   -1.371629
H       2.492811    1.118495   -0.663807
H       3.157613   -1.041935    1.216690
H       2.004572   -2.724525   -0.809248
H       0.773010   -0.142185    2.238979
