21

C       0.102968    1.317728    0.210742
O      -0.162815   -0.035747   -0.116374
C       0.565892   -0.499939   -1.184132
C       0.951224   -1.916736   -1.505744
C       0.434567   -1.773010   -2.937575
C       0.332022   -0.226658   -2.708902
C       1.600920    0.488515   -3.193982
C       2.746547   -0.195396   -2.390984
C       2.026860   -0.850834   -1.213696
H       1.164724    1.471514    0.448812
H      -0.174417    1.996405   -0.608272
H      -0.501881    1.559373    1.087694
H       0.880353   -2.797765   -0.878591
H       1.083214   -2.105278   -3.756322
H      -0.548907   -2.234929   -3.055346
H      -0.608948    0.238043   -3.003809
H       1.740933    0.406713   -4.276804
H       1.547518    1.556200   -2.950402
H       3.281463   -0.931717   -3.000872
H       3.490928    0.530139   -2.048687
H       2.536102   -0.989138   -0.266132
