22

C      -0.125993    1.616666    0.064822
C      -0.114186    0.089534    0.016369
N       0.674022   -0.460340    1.119703
C       2.153521   -0.523618    0.913009
C       2.290906   -1.732187    1.883558
C       3.146403   -2.535246    0.886142
C       2.147319   -1.789285   -0.019299
C       0.982027   -1.928415    1.046876
C      -0.060720   -2.999802    1.172190
H       0.880476    2.025509   -0.075103
H      -0.763948    2.027156   -0.724094
H      -0.497553    1.964381    1.032918
H      -1.139307   -0.285966    0.126603
H       0.240785   -0.247034   -0.974638
H       2.793659    0.357724    0.850496
H       2.342999   -1.670075    2.970713
H       4.197574   -2.244342    0.798445
H       3.058098   -3.625289    0.925609
H       2.067688   -1.822614   -1.106144
H       0.403810   -3.991371    1.168997
H      -0.618941   -2.884213    2.106909
H      -0.773994   -2.961404    0.341908
