21

C      -0.235478    1.446125    0.053228
N      -0.143852   -0.004333    0.066024
C       0.636631   -0.576767    0.876698
C       0.681245   -2.087073    0.959443
N       2.027642   -2.563473    1.270580
C       2.517360   -1.963427    2.508323
C       3.875842   -2.543863    2.889741
C       2.614380   -0.465216    2.246555
O       1.376784    0.107088    1.802895
H       0.631426    1.952720    0.491754
H      -0.365947    1.781326   -0.980532
H      -1.128565    1.763241    0.606832
H      -0.059118   -2.389129    1.726581
H       0.347160   -2.484921    0.000597
H       2.021918   -3.575154    1.348648
H       1.809674   -2.115381    3.347506
H       4.597590   -2.397831    2.080373
H       4.264252   -2.072973    3.797927
H       3.795861   -3.619037    3.081926
H       2.877617    0.079784    3.156913
H       3.384278   -0.282128    1.485324
