19

O       0.225553    1.567908   -0.061159
C       0.042749    0.181652    0.054389
C       0.492026   -0.509445   -1.222129
O       0.939694    0.108574   -2.157973
C       0.781963   -0.388793    1.240345
C       0.333859   -1.629983    1.966393
C       0.414808   -0.335670    2.727133
C       1.869873   -0.022317    3.092384
C       2.248464   -0.076589    1.575370
H       0.567191    1.710292   -0.958554
H      -1.030218   -0.062337    0.174840
H       0.392442   -1.613065   -1.240645
H      -0.673002   -1.969506    1.740389
H       1.038945   -2.434711    2.163723
H      -0.462577    0.104088    3.186234
H       2.002083    0.975817    3.513906
H       2.360051   -0.748308    3.749121
H       2.986763   -0.825544    1.270464
H       2.549492    0.900198    1.193972
