27

C      -0.056421    1.488342   -0.503043
C      -0.055842   -0.043912   -0.472202
C      -1.329668   -0.619790    0.151245
C      -2.605276   -0.541267   -0.741343
C      -2.547249   -2.079869   -0.978994
C      -2.104945   -2.481159   -2.385043
C      -1.486673   -2.178707    0.174734
C      -0.264486   -3.084388    0.044982
C      -0.604036   -4.573131    0.187998
H       0.859049    1.878556   -0.958892
H      -0.904524    1.876866   -1.077173
H      -0.127949    1.901511    0.509434
H       0.074799   -0.426322   -1.492081
H       0.816406   -0.391714    0.095709
H      -1.455159   -0.164842    1.140738
H      -3.496248   -0.220534   -0.195245
H      -2.520244    0.075935   -1.641993
H      -3.483085   -2.599385   -0.749637
H      -1.178235   -1.982284   -2.686824
H      -1.943370   -3.560857   -2.472960
H      -2.874357   -2.202582   -3.114193
H      -2.009731   -2.455812    1.098492
H       0.241593   -2.914194   -0.912458
H       0.462537   -2.809487    0.820880
H      -1.052816   -4.781656    1.165837
H      -1.318702   -4.897678   -0.575424
H       0.290121   -5.197301    0.092122
