19

O       0.048964    1.347369    0.327612
C      -0.061213   -0.065847    0.392161
C      -1.340031   -0.466701   -0.336367
C      -1.526575   -1.966278   -0.351160
N      -2.082161   -2.595218    0.864326
C      -2.835293   -2.672543   -0.405661
C      -4.190697   -2.004457   -0.374322
O      -5.081825   -2.720105    0.465650
H       0.822617    1.612606    0.833074
H       0.807122   -0.555149   -0.081059
H      -0.112751   -0.421271    1.432609
H      -2.183029    0.023698    0.156437
H      -1.295225   -0.086997   -1.364416
H      -0.706194   -2.501025   -0.831987
H      -1.616625   -3.477424    1.056661
H      -2.837426   -3.637577   -0.910588
H      -4.096902   -0.958676   -0.052219
H      -4.638067   -2.006571   -1.373989
H      -4.643774   -2.773266    1.323593
