15

C       0.006224    1.549973   -0.024683
C       0.054356    0.056799    0.012217
C       0.302979   -0.986240   -1.032741
C       0.692738   -2.096804   -0.011826
N      -0.482303   -3.031231    0.170606
C      -0.993149   -1.890501    0.482733
O      -0.809617   -1.315565    1.743494
C       0.449371   -0.859711    1.185313
N      -1.064996   -0.775961   -0.503707
H       1.006451    1.975026    0.109032
H      -0.391962    1.898531   -0.980962
H      -0.637470    1.932791    0.773740
H       0.510295   -0.912177   -2.092731
H       1.623671   -2.654564    0.018263
H       1.172626   -0.632689    1.962603
