20

C      -0.054382    1.569819    0.025167
C       0.019829    0.038779   -0.024421
C       0.762895   -0.465621   -1.263396
O       2.142240   -0.186754   -1.151383
C       2.761602   -0.961830   -0.131030
C       4.189213   -0.466462    0.043332
C       1.998464   -0.933056    1.203104
O       2.517261   -1.310787    2.238314
N       0.702952   -0.509004    1.145342
H       0.948518    1.995985   -0.063461
H      -0.672061    1.953523   -0.793506
H      -0.493683    1.909250    0.968154
H      -0.998393   -0.372223   -0.045914
H       0.594488   -1.547213   -1.390309
H       0.402404    0.047984   -2.158747
H       2.776830   -2.021781   -0.442549
H       4.192309    0.594470    0.309296
H       4.672710   -1.028897    0.842850
H       4.746059   -0.593826   -0.888034
H       0.245670   -0.455926    2.045271
