14

N       0.004239    1.408656    0.028389
C      -0.015690    0.037817   -0.003124
N      -0.959100   -0.758304    0.393972
C      -0.413891   -2.032761    0.224832
C       0.830903   -1.920593   -0.275720
O       1.764969   -2.786285   -0.709890
C       2.773462   -3.105760    0.168180
N       3.703385   -3.850759   -0.223060
O       1.115082   -0.572860   -0.432847
H       0.554529    1.842764   -0.698547
H      -0.918240    1.806936    0.126971
H      -0.961175   -2.930100    0.462078
H       2.622233   -2.655865    1.155753
H       4.365710   -4.013944    0.532456
