17

O       0.198876    1.224668    0.366236
C       0.043124   -0.136448    0.163986
C      -1.357284   -0.683847   -0.002259
C      -2.542617    0.219482   -0.259351
C      -2.339688    0.629329   -1.753020
O      -0.923517    0.450610   -2.044928
C      -0.460492   -0.555093   -1.205960
C      -0.642352   -2.064281   -1.347953
O      -1.384681   -2.120226   -0.089652
H       0.104500    1.646812   -0.498910
H       0.777762   -0.750439    0.681709
H      -3.485066   -0.309932   -0.107364
H      -2.520860    1.094441    0.395112
H      -2.926710   -0.014392   -2.420181
H      -2.586765    1.671980   -1.969116
H      -1.273991   -2.344083   -2.199623
H       0.253253   -2.695235   -1.325152
