13

N       0.036235    1.451669    0.152290
C       0.019856    0.090929    0.051323
C      -1.100372   -0.740862    0.031003
N      -0.655283   -2.032061   -0.014633
N       0.669373   -2.094492   -0.031084
C       1.097104   -0.830623    0.008720
N      -2.465162   -0.421855    0.021666
O      -3.270919   -1.354656   -0.013172
O      -2.768543    0.778853    0.043606
H       0.854573    1.932353   -0.183621
H      -0.850747    1.901723   -0.023621
H      -1.232635   -2.856566   -0.036274
H       2.155160   -0.616969    0.007499
