18

C      -0.039932    1.532680    0.020981
C       0.143745    0.029223    0.029529
C       1.405223   -0.716369   -0.229278
O       1.576716   -1.680911   -1.187788
C       2.636863   -0.047505    0.366672
C       1.971998   -0.054409    1.778795
C       0.738053   -0.764400    1.202736
C       0.005104   -1.800248    1.839806
N      -0.584573   -2.661467    2.344574
H       0.828070    2.059056    0.425061
H      -0.197419    1.891484   -1.001602
H      -0.912792    1.818683    0.616280
H      -0.715946   -0.508189   -0.373850
H       0.734771   -1.868661   -1.615721
H       3.498643   -0.715430    0.322031
H       2.916328    0.919439   -0.061935
H       2.511410   -0.678897    2.491575
H       1.784990    0.920153    2.237613
