17

C      -0.040383    1.557046   -0.041260
C      -0.011936    0.057599    0.002120
C      -0.027939   -0.752844   -1.070251
C       0.008369   -2.218306   -0.737208
C       0.052367   -2.240482    0.810687
C       0.038108   -0.773172    1.221782
N       0.069006   -0.479918    2.466341
O       0.051418    0.907771    2.708951
H       0.840934    1.984621    0.444616
H      -0.076657    1.906900   -1.077124
H      -0.907100    1.952910    0.495122
H      -0.063758   -0.394068   -2.094242
H      -0.869122   -2.742826   -1.135982
H       0.880799   -2.710555   -1.185219
H      -0.804273   -2.767183    1.239710
H       0.949540   -2.736553    1.190524
H       0.078875    0.938302    3.670504
