23

C      -0.143880    1.561913   -0.033619
C       0.026422    0.043013    0.000346
C       0.916983   -0.526473   -1.101973
C       2.326165   -0.623191   -0.542272
C       2.273941   -0.124294    0.895654
C       0.816646   -0.558219    1.208997
C       0.288877   -0.261142    2.599381
C       0.870144   -2.054249    0.794029
C       1.443751   -1.857182   -0.603873
H       0.817003    2.085053   -0.035264
H      -0.678173    1.864739   -0.940786
H      -0.724928    1.921238    0.822413
H      -0.970688   -0.417633   -0.033332
H       0.731616   -0.338810   -2.152313
H       3.199471   -0.515281   -1.172275
H       2.994821   -0.630846    1.547900
H       2.431195    0.954328    0.992725
H       0.306420    0.812054    2.817147
H      -0.745242   -0.606184    2.713555
H       0.890500   -0.761828    3.366241
H       1.522458   -2.642776    1.449435
H      -0.122894   -2.518250    0.790727
H       1.653756   -2.679122   -1.275907
