15

N       0.029993    1.256530    0.408191
C       0.000540    0.033406    0.104658
O      -1.133720   -0.675241    0.286211
C      -1.079125   -2.049878   -0.095609
C      -2.450976   -2.623102    0.061339
N      -2.598398   -3.835549    0.539698
O      -3.963841   -4.083295    0.516250
C      -4.592898   -3.001096    0.033153
C      -3.699901   -2.030752   -0.280831
H       0.951097    1.642851    0.212736
H       0.827805   -0.558463   -0.311411
H      -0.753934   -2.132841   -1.142239
H      -0.374622   -2.610085    0.529425
H      -5.668175   -3.070163   -0.022485
H      -3.882663   -1.045193   -0.672574
