14

O       0.288215    1.333494    0.072864
C       0.137615    0.001875   -0.026813
C      -0.120191   -0.737001   -1.135308
O      -0.182177   -2.051984   -0.726436
C       0.049219   -2.021069    0.599795
C      -0.000947   -3.307141    1.346112
C      -1.435797   -3.743602    1.648109
O      -1.840412   -4.863761    1.500871
N       0.241500   -0.824121    1.073851
H       0.467424    1.526108    1.001143
H      -0.266152   -0.533964   -2.179426
H       0.498446   -4.111672    0.801486
H       0.505010   -3.153923    2.306058
H      -2.085677   -2.928845    2.036725
