18

C      -0.025032    1.381840   -0.305466
C       1.439566    1.558521    0.135779
C       1.270515    0.151882    0.737817
O      -0.091216    0.069239    0.289167
C       2.220029   -1.055883    0.544500
C       3.097513   -0.412144    1.657651
C       1.635403   -0.286812    2.177276
C       1.414963   -1.751207    1.685929
H      -0.747027    2.070859    0.148244
H      -0.197014    1.347339   -1.387644
H       2.167877    1.636068   -0.673844
H       1.619400    2.357488    0.857755
H       2.554334   -1.491894   -0.398250
H       3.738103   -1.101592    2.211763
H       3.626317    0.512437    1.411496
H       1.297219    0.161829    3.112687
H       0.390003   -2.042787    1.456275
H       1.947780   -2.527032    2.242138
