16

O       0.011298   -0.078531   -0.452560
C       0.017334    1.082699   -0.142687
C      -1.280782    1.864645    0.250518
C      -1.272203    3.305739   -0.279394
C      -0.467873    4.576315    0.116316
N       0.829638    4.339373    0.875352
C       1.008951    3.258907   -0.111035
C       1.186560    1.971544    0.194021
C      -0.061824    3.745362   -1.060189
H      -2.145826    1.324552   -0.145826
H      -1.345877    1.821222    1.344277
H      -2.220745    3.604279   -0.723666
H      -0.956382    5.543354    0.171188
H       1.410386    5.149571    0.644558
H       1.757259    1.674736    1.071432
H       0.003839    3.934401   -2.124012
