18

C       0.013536    1.522376   -0.109389
C       0.004023    0.026565   -0.008395
C       0.005411   -0.865576   -1.057191
N      -0.029219   -2.147640   -0.551327
C       0.080203   -3.350480   -1.336030
C       1.520661   -3.670067   -1.741691
O       1.803334   -4.431935   -2.625867
C      -0.034551   -2.079215    0.821381
C      -0.020580   -0.754424    1.185841
H       0.881358    1.957306    0.399922
H       0.046711    1.847794   -1.153263
H      -0.879324    1.966262    0.346340
H       0.015327   -0.696268   -2.123201
H      -0.300732   -4.197389   -0.753174
H      -0.531903   -3.284228   -2.240972
H       2.290817   -3.140410   -1.137153
H      -0.058145   -2.980247    1.414472
H      -0.040329   -0.377856    2.197794
