15

O       0.030353   -0.012023    0.003211
C      -0.018178    1.184943   -0.045209
C      -1.267995    2.065300   -0.142174
C      -0.813748    3.357465   -0.855274
C       0.679621    3.457535   -0.571940
N       0.998079    3.274707    0.838542
C       1.181390    2.119066   -0.104232
C       2.495527    1.627520   -0.384928
N       3.562749    1.237898   -0.601034
H      -2.063040    1.526749   -0.659418
H      -1.610714    2.272791    0.876410
H      -0.968569    3.278661   -1.935965
H      -1.344669    4.246018   -0.503379
H       1.316260    4.086713   -1.184992
H       1.919608    3.657080    1.044306
