20

C      -0.178579    1.485053   -0.037148
C      -0.043177   -0.034035   -0.009429
C       1.150942   -0.582681   -0.820877
C       1.284214   -2.084859   -0.546455
C       2.388260   -1.837450    0.441038
N       2.096572   -0.344904    0.381024
C       0.789621   -0.579636    1.171095
C       1.008841   -2.090337    0.977181
C       0.439470   -3.250642    1.733401
H       0.788978    1.964923    0.137229
H      -0.558595    1.828131   -1.005498
H      -0.874063    1.832086    0.734603
H      -1.006545   -0.525422   -0.184636
H       1.438175   -0.177064   -1.792522
H       1.087846   -2.942499   -1.177224
H       3.356977   -2.290950    0.611534
H       0.716657   -0.171985    2.181609
H      -0.651365   -3.299343    1.632979
H       0.846140   -4.198332    1.364178
H       0.673595   -3.185323    2.802162
