18

C       0.244018    1.437005    0.067142
C      -0.002254   -0.027730   -0.040439
N       0.095155   -0.740793   -1.085694
C      -0.273436   -2.104664   -0.706318
C      -0.449650   -2.058123    0.853129
C       0.634938   -2.800639    1.617772
O      -0.371977   -0.636516    1.128323
C      -1.849655   -2.508848    1.241098
O      -2.115793   -3.591454    1.691497
H       1.043356    1.634841    0.787937
H       0.520763    1.835106   -0.908250
H      -0.654711    1.944829    0.430928
H      -1.192420   -2.398377   -1.228612
H       0.503919   -2.820109   -0.991915
H       1.623900   -2.508351    1.254682
H       0.572012   -2.583010    2.686952
H       0.505475   -3.876969    1.481097
H      -2.629889   -1.741528    1.037484
