16

O      -0.098435    0.015892    0.007974
C      -0.071502    1.225374    0.012612
N      -1.159975    2.076092    0.030642
C      -0.749165    3.418595    0.030626
C       0.584892    3.515676    0.013374
C       1.165815    2.135017   -0.000132
C       2.282985    1.750682    1.013803
O       3.247600    1.542244   -0.030346
C       2.255515    1.759233   -1.046643
H      -2.111281    1.748616    0.042003
H      -1.494899    4.200475    0.043758
H       1.159582    4.429384    0.009549
H       2.580287    2.546719    1.705440
H       2.068243    0.829023    1.567716
H       2.025989    0.842177   -1.602266
H       2.534365    2.561014   -1.739329
