16

C      -0.031429    1.512128    0.127208
C      -0.005044    0.029828   -0.015835
C      -0.037115   -0.789679   -1.144133
N      -0.152320   -0.383715   -2.474910
N      -0.017018   -2.098987   -0.799150
C       0.030568   -2.124081    0.529756
N       0.050713   -0.848775    1.032305
C       0.065811   -3.275535    1.418969
O       0.045091   -4.436858    1.082790
H       0.966688    1.944179    0.277882
H      -0.452855    1.959164   -0.777474
H      -0.655571    1.827094    0.970803
H       0.498479    0.343883   -2.739871
H      -0.055696   -1.178407   -3.094578
H       0.085302   -0.600194    2.008300
H       0.117597   -2.984869    2.497226
