21

C      -0.035640    1.556634    0.088355
C      -0.044138    0.029795   -0.022438
C       0.714219   -0.514818   -1.240050
C       0.843113   -2.044246   -1.211892
N       0.068192   -0.053633   -2.468309
C       0.724664    0.018486   -3.663863
N       1.980924   -0.185511   -3.797744
C      -0.168345    0.406701   -4.824501
O       0.244131    0.545315   -5.944985
H       0.986978    1.936130    0.186215
H      -0.474561    2.022218   -0.798888
H      -0.602312    1.891511    0.962235
H       0.402703   -0.410193    0.876215
H      -1.079553   -0.341382   -0.051998
H       1.722110   -0.086222   -1.262043
H      -0.144010   -2.520756   -1.197031
H       1.388337   -2.393236   -2.091691
H       1.388712   -2.367089   -0.319435
H      -0.939554   -0.096508   -2.496918
H       2.228036   -0.014396   -4.774168
H      -1.245226    0.559938   -4.580492
