18

N      -0.129721    1.175284   -0.768305
C      -0.073444    0.084005   -0.155196
O       0.942690   -0.463432    0.608994
C       0.215697   -1.738474    0.735240
C      -0.165082   -2.135714    2.163287
C      -1.555198   -1.558403    2.416441
C      -1.732496   -0.067832    2.324923
C      -2.072538   -0.928478    1.131139
C      -1.013622   -1.090672    0.042695
H       0.734525    1.708676   -0.655945
H       0.761179   -2.510443    0.188272
H      -0.197356   -3.228698    2.231443
H       0.590167   -1.788404    2.876406
H      -2.222416   -2.114720    3.065698
H      -2.563981    0.371750    2.865011
H      -0.851193    0.563420    2.281644
H      -3.111819   -1.013966    0.838894
H      -1.402966   -1.546094   -0.867444
