20

C      -0.233615    1.393728    0.044061
C       0.057785   -0.101403   -0.011106
C       0.943610   -0.550007   -1.210798
C       2.188601   -0.457695   -0.291207
C       1.220391   -0.578359    0.922901
N       1.056559   -1.934498    1.391787
C       0.806961   -2.900897    0.618588
O       0.631601   -3.017245   -0.724438
C       0.647251   -1.956235   -1.696287
H       0.677993    1.990328   -0.072263
H      -0.925589    1.689473   -0.752122
H      -0.688378    1.667279    1.001908
H      -0.869840   -0.668122    0.121796
H       0.930500    0.102914   -2.090670
H       2.950733   -1.235754   -0.381037
H       2.672000    0.520744   -0.342969
H       1.434358    0.062864    1.781946
H       0.698056   -3.900896    1.037647
H      -0.337950   -1.980668   -2.178923
H       1.392510   -2.256398   -2.442848
