19

C      -0.099045    1.671742    0.037990
C       0.035338    0.151152   -0.038183
C       0.761846   -0.477793    1.170325
O      -0.028202   -0.158629    2.323682
C       0.854581   -2.020403    1.010985
C      -0.501032   -2.693770    0.920902
O      -0.766536   -3.569825    0.137478
C       2.119220    0.064241    1.319844
C       3.238278    0.474379    1.478973
H       0.882505    2.154659    0.047151
H      -0.654058    2.048824   -0.825720
H      -0.631471    1.965509    0.945447
H      -0.959209   -0.307772   -0.090599
H       0.569954   -0.145163   -0.946943
H       0.531211   -0.250676    3.102337
H       1.450922   -2.294306    0.136980
H       1.361577   -2.421316    1.899715
H      -1.245554   -2.330896    1.659979
H       4.223643    0.849377    1.610666
