16

N      -0.048748    0.970368   -0.712269
C      -0.030409   -0.110412   -0.066650
C      -1.283274   -0.883270    0.373725
C      -0.660529   -2.204113    0.664431
C      -0.742549   -3.458794    0.242246
C       0.603391   -4.118297    0.404351
O       1.485027   -3.073047    0.852349
C       0.741244   -1.932021    1.124491
O       1.107561   -0.765579    0.341028
H       0.901078    1.303281   -0.886806
H      -1.707040   -0.399573    1.262783
H      -2.041666   -0.880684   -0.408474
H      -1.574693   -3.935650   -0.259350
H       0.621443   -4.935830    1.138512
H       0.966699   -4.521438   -0.550540
H       0.880384   -1.645577    2.176479
