20

C       0.086301    1.459987   -0.053014
O      -0.234953    0.094397   -0.204933
C       0.526463   -0.572512   -1.175710
C       2.012205   -0.817319   -0.820469
C       2.399674   -2.144434   -1.531008
C       1.103975   -2.665823   -2.203701
C      -0.044029   -1.989916   -1.418357
C      -0.311512   -2.686540   -0.157311
N      -0.504793   -3.273805    0.819213
H       1.107692    1.607494    0.325235
H      -0.014997    2.006683   -1.003859
H      -0.618523    1.875276    0.670425
H       0.461731   -0.032568   -2.136328
H       2.647273    0.019027   -1.121035
H       2.090151   -0.917370    0.266328
H       3.194766   -2.004999   -2.267197
H       2.767229   -2.870313   -0.801720
H       1.045223   -2.331144   -3.244484
H       1.026303   -3.754321   -2.204116
H      -0.977486   -1.949721   -1.986648
