17

C      -0.056413    1.731368   -0.040221
C       0.064905    0.216138   -0.013946
O       0.793847   -0.158804    1.162580
C       1.802627   -1.047354    1.046982
O       2.429829   -1.433312    1.985656
C      -1.320036   -0.482539    0.033419
O      -2.138934   -0.044018   -1.044085
C      -1.177112   -1.937910    0.052822
C      -1.037571   -3.131082    0.005774
H       0.931941    2.189850   -0.125711
H      -0.672243    2.040015   -0.886642
H      -0.523318    2.089771    0.882116
H       0.599231   -0.142574   -0.904983
H       1.984418   -1.355512   -0.000011
H      -1.822289   -0.150669    0.950103
H      -1.941462   -0.597321   -1.807728
H      -0.928612   -4.188073   -0.008373
