18

C       0.110298    1.500232   -0.225394
C       0.026158    0.017384    0.018449
O       1.270126   -0.713112    0.022421
C       0.542970   -0.634314    1.226830
C       1.055715   -0.003525    2.525001
C       0.122182   -1.000925    3.294421
C      -0.019100   -1.842831    1.979905
C       0.662379   -1.663429    4.467500
N       1.104741   -2.195235    5.394155
H       0.917203    1.950817    0.357876
H       0.302200    1.702432   -1.284030
H      -0.833457    1.987622    0.042878
H      -0.773201   -0.499318   -0.516782
H       2.111855   -0.228750    2.691131
H       0.880822    1.060177    2.695339
H      -0.825210   -0.524345    3.557571
H      -1.020000   -2.195938    1.725837
H       0.678931   -2.683452    1.963448
