18

O      -0.133681    1.131125    1.102655
C       0.068026    0.214683    0.031585
C      -1.246202   -0.538955   -0.124304
C      -1.922465   -1.285499   -1.275380
N      -1.152956   -2.273356   -2.126460
C       0.276002   -2.276505   -1.767583
C      -0.690223   -2.928426   -0.853245
C      -1.571375   -1.992051    0.011505
O      -2.417210   -2.522080    0.966517
H       0.676875    1.635541    1.221104
H       0.322418    0.748101   -0.898383
H       0.894717   -0.471254    0.264287
H      -2.034984    0.040878    0.356509
H      -2.871235   -0.947738   -1.672394
H       0.851333   -2.940749   -2.409080
H       0.785305   -1.353364   -1.529799
H      -0.759129   -4.005786   -0.739356
H      -2.020596   -2.381540    1.833341
