19

C       0.321396    1.592441   -0.209577
O       1.482734    1.418619    0.635286
C       1.287698   -0.011550    0.698664
C      -0.030837    0.090920   -0.124000
C       0.119940   -0.778021   -1.379429
C       1.609964   -1.096113   -1.494351
O       2.396695   -0.045153   -2.108839
C       3.284497   -0.001923   -0.964574
C       2.300167   -0.838917   -0.128832
H      -0.401816    2.280511    0.243038
H       0.594053    1.950285   -1.208536
H       1.227308   -0.348430    1.738511
H      -0.952878   -0.111074    0.422444
H      -0.438091   -1.714528   -1.262498
H      -0.248449   -0.290510   -2.288077
H       1.808548   -2.061432   -1.977049
H       4.232562   -0.513790   -1.174132
H       3.466416    1.018960   -0.623657
H       2.702243   -1.689358    0.423000
