21

C       0.605864    1.421351    0.124235
C       0.124611    0.011235   -0.009661
C       0.205936   -0.777191   -1.082959
C      -0.430640   -2.125064   -0.870021
C      -0.628548   -2.191938    0.685555
C       0.560062   -2.945203    1.323015
C      -0.592239   -0.689136    1.123811
C      -1.880239   -2.846501    1.056089
C      -2.907656   -3.390336    1.365200
H       1.330570    1.518404    0.942792
H       1.080786    1.774786   -0.795069
H      -0.222056    2.101646    0.362537
H       0.646955   -0.485441   -2.030713
H      -1.392540   -2.199525   -1.392872
H       0.182849   -2.960725   -1.226594
H       1.500274   -2.458943    1.043788
H       0.478670   -2.948113    2.413660
H       0.589869   -3.983398    0.980606
H      -0.089020   -0.567295    2.090902
H      -1.605806   -0.287017    1.249112
H      -3.816590   -3.867754    1.635517
