19

C      -0.034557    1.561964    0.135290
C       0.003432    0.043580   -0.002381
C      -1.383252   -0.558280   -0.219176
C       1.071954   -0.532723   -1.014185
C       1.743987   -1.253345    0.151536
O       2.114715   -0.271823    1.136626
C       0.764829   -0.691927    1.130021
C       2.408522   -2.565696    0.210616
O       2.480453   -3.325069   -0.725275
H       0.962153    1.955656    0.350197
H      -0.393788    2.024615   -0.790601
H      -0.707446    1.869328    0.943922
H      -1.826139   -0.182303   -1.147298
H      -1.342962   -1.650935   -0.286184
H      -2.058048   -0.296612    0.603869
H       0.643557   -1.223520   -1.742125
H       1.705843    0.196739   -1.522551
H       0.370010   -1.124346    2.044825
H       2.827642   -2.805686    1.211973
