25

C      -0.461471   -0.315026   -2.352975
C      -0.276786   -0.942798   -0.965560
C      -1.590784   -1.134162   -0.229102
O      -2.348211    0.049526   -0.095167
C      -1.832950    0.981149    0.833929
C      -2.465333   -2.343074   -0.444987
C      -2.134290   -3.472071   -1.397902
C      -1.759764   -2.141915    0.892809
C      -0.655760   -3.047400    1.397913
H       0.504848   -0.138564   -2.835368
H      -1.050486   -0.967558   -3.005344
H      -0.989573    0.639238   -2.280239
H       0.236188   -1.903652   -1.060457
H       0.390140   -0.312879   -0.362547
H      -1.675775    0.526255    1.822578
H      -0.883573    1.426444    0.503744
H      -2.574009    1.779393    0.925843
H      -3.523080   -2.095437   -0.417656
H      -1.065211   -3.694470   -1.442385
H      -2.644952   -4.393462   -1.096019
H      -2.461933   -3.233988   -2.415720
H      -2.423552   -1.792216    1.680142
H       0.000192   -3.402471    0.599715
H      -0.026721   -2.530332    2.131245
H      -1.074924   -3.932062    1.890716
