19

C       0.003551    1.491379   -0.020548
C      -0.013148    0.036204   -0.007525
C      -0.027203   -1.168147    0.011840
C      -0.039061   -2.625316    0.017859
C       1.002301   -3.211513   -0.929414
O       0.162529   -3.183866    1.370892
C      -1.059459   -3.914783    1.265786
C      -2.233793   -2.995300    1.150255
C      -1.409458   -3.324886   -0.074763
H       0.783082    1.876405   -0.687024
H      -0.955859    1.897535   -0.359465
H       0.196611    1.890111    0.981458
H       2.002142   -2.885824   -0.631779
H       0.960121   -4.303552   -0.898484
H       0.816615   -2.874592   -1.954196
H      -1.078779   -4.926818    1.652588
H      -3.208707   -3.472942    1.175386
H      -2.186818   -2.004905    1.593105
H      -1.810400   -3.768518   -0.976206
