21

C       0.532696   -0.026998    1.474730
C       0.063255   -0.151192    0.021966
C      -1.359646   -0.676671   -0.106531
C      -1.731145   -1.476036   -1.344502
C      -1.579923   -2.158438   -0.001506
N      -2.353899    0.176333    0.516112
C      -2.743892    1.326535   -0.295157
C      -3.784429    2.109778    0.375405
N      -4.622388    2.713402    0.892639
H       1.541756    0.392727    1.526602
H      -0.141548    0.619107    2.042426
H       0.549014   -1.004843    1.967518
H       0.140677    0.824918   -0.475828
H       0.729513   -0.819500   -0.535424
H      -2.737897   -1.368898   -1.735684
H      -0.975220   -1.651819   -2.102492
H      -0.713087   -2.789167    0.163877
H      -2.479657   -2.514047    0.491292
H      -3.175891   -0.353779    0.779129
H      -1.872780    1.974900   -0.443889
H      -3.110130    1.062562   -1.303072
