18

O      -0.273833    1.036087   -0.592871
C       0.025311   -0.217629   -0.024370
C      -1.251376   -1.086492    0.159134
C      -1.330876   -1.914458   -1.114370
C      -1.126107   -1.216651   -2.409713
N      -0.014030   -1.951843   -1.777786
C       0.885426   -1.100157   -0.989053
C       0.736103   -0.001967    1.294172
O       0.991836    1.100937    1.713181
H       0.073910    1.695666    0.029826
H      -1.147254   -1.755496    1.022322
H      -2.116672   -0.441917    0.329549
H      -1.884346   -2.848497   -1.078423
H      -1.491109   -1.673468   -3.324769
H      -1.100325   -0.131829   -2.408374
H       1.498591   -0.461263   -1.629028
H       1.548330   -1.762728   -0.419155
H       1.014453   -0.918346    1.853714
