19

C       0.071689    1.603265   -0.027246
C       0.035022    0.068992    0.008858
C       0.808343   -0.466893    1.234497
N      -1.356793   -0.426852    0.013444
C      -2.253423   -0.238984    1.026135
O      -2.011511    0.196649    2.130739
C       0.747239   -0.494931   -1.243735
N       0.320917   -1.730735   -1.657962
O       1.630003    0.113552   -1.810407
H       1.103290    1.950234   -0.098565
H      -0.470878    1.983564   -0.897541
H      -0.389639    1.999487    0.879701
H       0.372394   -0.072470    2.151507
H       0.772503   -1.559713    1.275727
H       1.853876   -0.156798    1.160672
H      -1.764795   -0.601031   -0.894164
H      -3.269683   -0.564491    0.722079
H      -0.226895   -2.310746   -1.043941
H       0.888173   -2.188236   -2.354982
