17

C       0.458788    1.452014    0.063995
O       1.077655    0.239865   -0.375015
C      -0.283599    0.180247    0.057059
C      -0.554978   -0.590669    1.294906
C       0.484313   -0.951300    2.318775
C      -0.245166   -2.056898    1.597724
C      -1.701767   -2.226403    2.131625
O      -1.930474   -1.296797    3.202596
C      -2.005958   -0.829602    1.850590
H       0.825423    1.843604    1.011160
H       0.278586    2.190902   -0.715483
H      -0.994843    0.021877   -0.756862
H       1.500708   -0.797048    1.972315
H       0.303907   -0.774031    3.371274
H       0.250403   -2.774560    0.957771
H      -2.314043   -3.119109    2.103490
H      -2.914387   -0.327715    1.538530
