22

C      -0.107241    1.468905    0.177344
C       0.002097   -0.046695   -0.006005
C       0.740353   -0.423087   -1.284482
O       0.783834   -1.842168   -1.347787
C       1.422940   -2.438262   -2.473703
C       0.698622   -2.119467   -3.796851
C       2.922060   -2.087409   -2.553752
C       1.301548   -3.893111   -2.219255
N       1.228599   -5.034386   -2.059115
H       0.881058    1.938750    0.231597
H      -0.651145    1.935176   -0.651633
H      -0.640089    1.712420    1.100687
H       0.527196   -0.497507    0.843369
H      -0.994382   -0.501240   -0.033874
H       0.217366   -0.004232   -2.157040
H       1.754631    0.002787   -1.271413
H       0.831514   -1.067877   -4.062822
H       1.106845   -2.728074   -4.607590
H      -0.368517   -2.332360   -3.701787
H       3.404584   -2.276991   -1.592271
H       3.412213   -2.695710   -3.317963
H       3.055835   -1.036078   -2.820282
