19

O      -0.136237    1.331552    0.338375
C      -0.051832   -0.077490    0.172694
C      -1.467599   -0.591836   -0.076408
C      -1.560416   -2.143166   -0.024820
N      -2.088466   -2.460928    1.311914
C      -2.490229   -1.355216    1.817658
C      -3.127395   -1.311418    3.179925
O      -3.127119   -2.576622    3.782805
N      -2.369362   -0.225970    1.027930
H       0.727831    1.663122    0.598724
H       0.588475   -0.348638   -0.681067
H       0.358010   -0.563179    1.072089
H      -1.834472   -0.176160   -1.019419
H      -2.244504   -2.528203   -0.790475
H      -0.589954   -2.625737   -0.185791
H      -2.584946   -0.586141    3.808921
H      -4.152752   -0.921176    3.071547
H      -2.768230   -3.177499    3.109993
H      -2.190827    0.668419    1.465309
