14

O       0.011381    0.063935    0.047049
C       0.016894    1.257820    0.071062
C      -1.049196    2.319146   -0.005560
C      -0.450939    3.568020    0.641096
C       0.919373    3.194614    1.219205
C       1.117842    2.332822   -0.059992
C      -0.016646    3.208530   -0.755718
C      -0.127310    3.832613   -2.016398
N      -0.199792    4.351242   -3.049374
H      -2.104105    2.228556   -0.223861
H      -1.100889    4.385535    0.924987
H       1.586776    4.058639    1.237968
H       0.952713    2.669583    2.178889
H       2.095362    2.097652   -0.468894
