18

C      -0.085317    1.524571    0.011545
C       0.056548    0.006023   -0.013935
C       1.043310   -0.524755   -1.078095
C       1.176785   -2.023380   -0.736785
C       1.894585   -1.374765    0.460228
O       2.350345   -0.303487   -0.436831
C       0.795685   -0.621191    1.236658
O       1.344445    0.316534    2.133638
H       0.891825    2.014854   -0.031202
H      -0.668153    1.869546   -0.848865
H      -0.586865    1.860600    0.922601
H      -0.928955   -0.453699   -0.144168
H       0.985222   -0.137140   -2.095634
H       0.270544   -2.609428   -0.562903
H       1.871817   -2.543731   -1.396431
H       2.692714   -1.847945    1.032239
H       0.150759   -1.274682    1.829161
H       2.026222    0.788929    1.638500
