13

C      -0.011324    1.442125   -0.016974
N      -0.007114   -0.002971    0.062437
N      -0.049309   -0.778701   -1.098330
N      -0.034813   -2.033929   -0.782975
C       0.015162   -2.119584    0.578556
C       0.032614   -0.849477    1.097448
O       0.081571   -0.813745    2.420867
N       0.098735   -2.203647    2.835456
C       0.058878   -2.932319    1.746190
H       0.900181    1.854977    0.423375
H      -0.057105    1.702022   -1.074506
H      -0.882151    1.853504    0.500269
H       0.064461   -4.007268    1.858982
