17

C      -0.037729    1.477632    0.038811
C      -0.051652   -0.019798   -0.013909
C      -1.223693   -0.981477   -0.179675
N      -0.308277   -2.111374    0.284182
C       0.606608   -1.029727    0.879358
C       1.165021   -0.819529   -0.543346
O       2.272222   -0.156934   -0.992881
C       0.651834   -2.170754   -0.851661
N       1.013219   -3.099532   -1.615588
H       0.966489    1.850775    0.257520
H      -0.347376    1.904094   -0.921246
H      -0.720129    1.847100    0.811470
H      -2.015269   -0.823094    0.558404
H      -1.656236   -1.135978   -1.174623
H       1.076077   -1.055662    1.851296
H       2.995766   -0.792488   -1.050001
H       0.464014   -3.942564   -1.433639
