14

O       0.296931    1.223268    0.679812
C       0.211452   -0.034683    0.256452
N       0.970209   -0.641144   -0.601128
C       0.419709   -1.919297   -0.654210
C      -0.635585   -2.007361    0.181717
N      -1.525008   -3.007146    0.526074
C      -2.817474   -3.080408    0.029084
N      -3.251240   -2.293466   -0.865973
O      -0.775906   -0.751617    0.792882
H       1.037518    1.622793    0.205112
H       0.820582   -2.686950   -1.296412
H      -1.323323   -3.568483    1.339167
H      -3.376250   -3.900207    0.497385
H      -4.209252   -2.530561   -1.112117
