15

O       0.324195    0.109111   -0.044485
C       0.812695    1.189526    0.110583
O       0.221886    2.301649   -0.393689
C       0.821856    3.577676   -0.205924
C       1.169565    4.139933    1.222269
C       2.540788    4.523521    0.657492
N       3.192182    3.247350    0.301267
C       2.250361    3.876985   -0.659119
H       1.753734    1.393022    0.642123
H       0.135256    4.262505   -0.706025
H       0.529725    4.977169    1.504399
H       1.207543    3.413036    2.035729
H       3.120890    5.412689    0.864869
H       4.133329    3.455023   -0.030628
H       2.573939    4.141087   -1.658081
