23

C       0.033881    1.551507   -0.040319
C       0.007566    0.017597    0.011690
C       0.570938   -0.539749   -1.311177
O       0.695270   -1.948946   -1.352038
C       1.870463   -2.468379   -0.753651
C       2.012510   -2.178280    0.745456
C       0.633384   -2.056349    1.452682
C       0.725466   -0.512279    1.266683
C       2.263859   -0.685196    1.101171
H       1.062968    1.929833   -0.045608
H      -0.462300    1.931138   -0.940292
H      -0.473839    1.983460    0.827493
H      -1.040186   -0.307537    0.078922
H      -0.113024   -0.273192   -2.124839
H       1.540298   -0.065996   -1.539485
H       1.808429   -3.550224   -0.913029
H       2.763329   -2.101111   -1.289204
H       2.727679   -2.892216    1.166343
H      -0.211611   -2.566888    0.985382
H       0.690688   -2.338626    2.507313
H       0.405378    0.080310    2.129455
H       2.783414   -0.587540    2.058351
H       2.783282   -0.062244    0.366254
