15

O       0.496088    0.326874    0.869320
C      -0.165721   -0.069568   -0.242178
C      -1.489636   -0.385070   -0.218896
N      -2.328320   -0.271583    0.899389
H      -1.808856    0.114907    1.679043
H      -2.729257   -1.160078    1.184777
N      -2.088013   -0.795934   -1.391408
C      -1.393895   -0.899070   -2.560517
C      -0.069195   -0.599417   -2.627413
C       0.637385   -0.143996   -1.452694
O       1.840070    0.157430   -1.373908
H       1.403623    0.471714    0.523071
H      -3.090187   -0.897704   -1.388224
H      -1.970205   -1.232808   -3.414232
H       0.469153   -0.697173   -3.561196
