19

C      -0.011729    1.516053    0.130030
C       1.291881    0.782541   -0.023048
O       2.079232    0.495644    1.137827
C       1.638069   -0.797994    1.550062
C       1.020487   -1.230664    2.916402
C      -0.014597   -0.100182    2.745326
C       0.133198   -0.746208    1.318748
C       0.065135   -2.131404    2.033281
C      -0.024540    0.002448    0.010486
H      -0.255240    1.963911    1.085533
H      -0.350697    2.084611   -0.730909
H       1.880737    0.902933   -0.926806
H       2.209701   -1.576305    1.028475
H       1.529658   -1.535925    3.830610
H      -0.980093   -0.239272    3.238266
H       0.366102    0.911659    2.875231
H       0.520722   -2.978288    1.512646
H      -0.881246   -2.408132    2.502634
H      -0.428181   -0.472011   -0.875787
