15

N       0.045236    1.187131    0.436174
C      -0.006280   -0.038620   -0.125836
O       0.966943   -0.570380   -0.655303
C      -1.325001   -0.755910   -0.062712
C      -1.625814   -1.707084   -1.241500
C      -1.209277   -2.329900    0.033825
O       0.006785   -2.919403    0.229625
C      -2.413555   -0.107383    0.599971
N      -3.270071    0.445829    1.150670
H       0.928172    1.670801    0.440950
H      -0.756921    1.613274    0.869762
H      -2.663050   -1.772474   -1.548731
H      -0.892602   -1.660133   -2.038971
H      -1.978379   -2.782804    0.650569
H       0.673271   -2.353661   -0.206249
