16

C      -0.169542    1.548203   -0.239591
C      -0.295707    0.072826   -0.603652
N       1.015213   -0.579493   -0.535642
C       0.987116   -2.000600   -0.884716
C       0.596636   -2.302935   -2.274593
C       0.264214   -2.492784   -3.413176
C       2.304207   -2.599358   -0.587292
N       3.334809   -3.065449   -0.356631
H       0.270880    1.666531    0.754098
H       0.465410    2.078605   -0.958284
H      -1.151562    2.029428   -0.248322
H      -0.951583   -0.433979    0.116016
H      -0.768034   -0.033239   -1.593860
H       1.670750   -0.103527   -1.149269
H       0.262549   -2.480168   -0.211089
H      -0.024205   -2.675045   -4.419500
