12

N      -0.284541   -0.879942   -0.877784
C      -0.104465    0.079404   -0.260533
C       0.120313    1.307908    0.502136
C       1.455816    1.938997    0.210308
N       2.189305    2.362395    1.212079
O       3.322243    2.917947    0.636785
C       3.234175    2.804002   -0.696184
C       2.075213    2.192743   -1.046070
H      -0.688420    2.010238    0.265118
H       0.055782    1.093966    1.573025
H       4.067068    3.197748   -1.257624
H       1.716805    1.946067   -2.031111
