19

N      -0.143452   -1.163413   -0.237707
C      -0.057544   -0.016680   -0.121638
C       0.013990    1.433486    0.040952
C      -0.645231    1.964486    1.376821
C       0.510893    2.810546    1.947693
C       1.596655    1.845399    2.467869
C       2.177989    1.288056    1.122447
N       1.410115    1.958529    0.035752
C       1.177375    3.294531    0.638511
H      -0.495676    1.877209   -0.820439
H      -1.529437    2.565845    1.150486
H      -0.946892    1.154544    2.043940
H       0.196396    3.576027    2.658014
H       2.360708    2.376839    3.042492
H       1.183688    1.061703    3.108587
H       3.229956    1.557199    1.000221
H       2.099300    0.204327    1.026370
H       0.529272    3.904916    0.002446
H       2.126958    3.815167    0.786766
