16

O       0.778776    0.723199    1.396232
C       0.405400    1.391254    0.452920
N       1.126864    1.619689   -0.673955
C       2.499424    1.139966   -0.825937
C       3.530831    2.089674   -0.289587
N       4.322730    2.764148   -1.122620
N       5.098697    3.510809   -0.314748
C       4.823665    3.332564    1.001468
C       3.803280    2.410529    1.062066
H      -0.591204    1.874270    0.412219
H       0.780281    2.297792   -1.334009
H       2.552200    0.185854   -0.296287
H       2.692932    0.964364   -1.886658
H       5.797435    4.106663   -0.724528
H       5.366553    3.860450    1.769655
H       3.311294    2.016814    1.935986
