17

C       0.028881    1.505118    0.216720
C       0.015346    0.054789    0.098734
C      -0.001081   -1.143676   -0.006079
C      -0.014088   -2.599356   -0.116754
N      -1.353164   -3.176741   -0.070258
C      -2.261229   -3.079562    0.962310
C      -3.352507   -3.802006    0.558418
N      -3.143668   -4.340806   -0.690419
C      -1.940035   -3.945432   -1.033877
H       0.551090    1.966582   -0.628233
H      -0.990569    1.905100    0.235584
H       0.530361    1.826068    1.135988
H       0.436822   -2.914365   -1.064026
H       0.595992   -3.041154    0.681544
H      -2.044940   -2.509026    1.850082
H      -4.275751   -3.964083    1.093832
H      -1.432416   -4.177332   -1.959209
