15

N      -0.081753    1.312571    0.070801
C      -0.001565    0.061028   -0.013727
O      -1.152447   -0.665543   -0.099910
C      -1.049666   -2.071468    0.002266
C      -0.904107   -2.645277    1.443873
O      -2.208132   -3.241005    1.382182
C      -2.454735   -2.720017    0.065671
C      -0.134707   -2.635499   -0.994281
N       0.592257   -3.089272   -1.769672
H       0.848405    1.725209    0.101845
H       0.910302   -0.546384   -0.046850
H      -0.110541   -3.385841    1.586272
H      -0.831838   -1.857192    2.202121
H      -3.249323   -1.967306    0.044276
H      -2.649901   -3.507178   -0.668319
