16

O       0.046384   -0.076476   -0.192868
C       0.072663    1.115181   -0.344469
C       1.294111    1.985802   -0.065082
N       1.561072    2.975966   -1.082223
C       1.818953    2.825065   -2.518558
C       0.566318    2.995241   -3.323171
C       1.272728    4.221664   -2.742746
C       1.016376    4.255452   -1.235481
O       0.538436    5.013114   -0.437747
H      -0.819145    1.681732   -0.699152
H       1.103071    2.540514    0.863471
H       2.159952    1.336663    0.096371
H       2.747874    2.400775   -2.875324
H       0.664704    2.885867   -4.399936
H      -0.391574    2.677601   -2.923016
H       1.664389    5.019463   -3.355925
