22

C       0.199471    1.576797    0.111301
C      -0.140083    0.088806   -0.034400
C       0.622914   -0.573644   -1.173328
N       2.153026   -0.572902   -1.151195
C       2.475242   -1.365114    0.102879
C       1.855491   -2.588056   -0.544028
C       2.065388   -1.933964   -1.881556
C       0.657750   -2.083117   -1.385464
C      -0.432134   -2.994555   -1.867316
H       1.266089    1.717761    0.309087
H      -0.037000    2.124591   -0.807351
H      -0.364466    2.034586    0.929554
H       0.037469   -0.435018    0.910850
H      -1.211959   -0.028990   -0.242549
H       0.346395   -0.083654   -2.116306
H       3.562608   -1.446725    0.187240
H       2.072603   -0.961711    1.037406
H       1.950564   -3.636984   -0.289284
H       2.587837   -2.198916   -2.790140
H      -0.037548   -3.980539   -2.135468
H      -1.198688   -3.145892   -1.098567
H      -0.926288   -2.583810   -2.755318
