17

C       0.064318    1.505705    0.139840
C       0.026629    0.003360   -0.163442
C      -1.377251   -0.580269   -0.031156
C      -1.587437   -2.105951   -0.089471
N      -0.849648   -2.663831    1.048954
C      -2.248577   -2.141028    1.259972
C      -2.076606   -0.640813    1.367424
O      -2.458483    0.193475    2.135168
H       1.085188    1.893180    0.070483
H      -0.555338    2.069197   -0.566895
H      -0.313246    1.712522    1.145205
H       0.393548   -0.180892   -1.181687
H       0.694954   -0.537982    0.513118
H      -2.078549   -0.070459   -0.705896
H      -1.835760   -2.701342   -0.958481
H      -0.939302   -3.679817    1.017754
H      -3.021895   -2.783272    1.661414
