23

C       0.110566    1.465831   -0.216960
C       0.009076   -0.025576    0.112177
O       0.636903   -0.320217    1.360459
C      -1.430136   -0.567662    0.061391
C      -2.292929   -0.051479    1.216347
C      -2.164213   -0.448923   -1.313325
C      -2.651540   -1.912927   -1.154589
C      -1.565529   -2.124557   -0.062216
O      -0.371968   -2.684601   -0.576119
H       1.160106    1.772929   -0.213352
H      -0.310188    1.690530   -1.201717
H      -0.421631    2.080784    0.519222
H       0.591142   -0.588412   -0.622160
H       0.317121    0.316825    2.007600
H      -2.399902    1.038177    1.185856
H      -3.301672   -0.474689    1.178496
H      -1.858950   -0.332673    2.181497
H      -2.926128    0.330130   -1.399679
H      -1.460472   -0.343933   -2.143404
H      -3.668933   -1.984136   -0.760970
H      -2.568810   -2.563827   -2.029027
H      -1.878311   -2.644673    0.853607
H      -0.555221   -3.597188   -0.819945
