15

O      -0.003339   -0.023139   -0.364447
C      -0.060575    1.131699   -0.040632
C      -1.360209    1.862570    0.203255
N      -1.209639    3.261522    0.588567
C      -0.131422    3.687720    1.451616
C      -0.176310    4.089736    0.009507
C       1.173563    3.321892   -0.236986
C       1.217952    2.924900    1.187360
N       1.132986    1.897430    0.135446
H      -1.970958    1.809739   -0.704521
H      -1.918663    1.338383    0.986332
H      -0.349254    4.249276    2.352095
H      -0.436672    5.032308   -0.456784
H       1.962244    3.642877   -0.905692
H       2.049009    2.866778    1.878866
