20

C      -0.197288    1.435156   -0.047369
N       0.014133   -0.000272    0.073728
C       1.355864   -0.512519   -0.187221
C       0.792894   -0.506408    1.196538
C       1.375044    0.363222    2.320935
C       1.882754   -0.650413    3.377939
C       1.008355   -1.874334    3.167832
O      -0.387857   -1.564500    3.070766
C       0.355110   -1.781646    1.857769
H       0.673583    2.047420    0.235298
H      -0.451016    1.666182   -1.086745
H      -1.043548    1.730150    0.580770
H       1.412268   -1.428012   -0.772503
H       2.149766    0.205555   -0.393630
H       2.164996    1.035101    1.981044
H       0.578415    0.975127    2.753403
H       2.927376   -0.926696    3.190809
H       1.822712   -0.257831    4.397509
H       1.246632   -2.821748    3.644824
H       0.050102   -2.637150    1.261994
