17

N      -0.006112    1.158511   -0.485000
C      -0.032587   -0.025414   -0.084800
O       1.009886   -0.839727    0.406437
C       0.065565   -1.922045    0.647906
C      -0.600019   -1.994807    2.044700
C      -1.852061   -1.248836    1.437529
C      -1.075392   -1.123611    0.089768
N      -1.222660   -2.050776   -1.056935
C      -0.178630   -2.963290   -0.471668
H       0.937444    1.549187   -0.447757
H      -0.785380   -2.999101    2.431812
H      -0.055135   -1.421468    2.796211
H      -2.741374   -1.877507    1.352884
H      -2.133622   -0.307777    1.912251
H      -2.144311   -2.451773   -1.182514
H       0.661357   -3.144619   -1.148360
H      -0.548585   -3.925004   -0.095906
