15

C      -0.400656    1.022772   -0.182769
O       0.565656    0.016487    0.095863
C       1.015583   -0.631797   -1.029755
C       1.503644   -2.029743   -0.848773
C       0.182229   -1.798202   -1.579445
O      -1.011763   -2.049484   -0.910775
C       0.147340   -1.992972   -3.010741
N       0.120298   -2.150850   -4.156958
H       0.002417    1.781958   -0.868097
H      -1.308195    0.589091   -0.617613
H      -0.642493    1.495719    0.770738
H       1.500215   -0.003197   -1.778186
H       2.361999   -2.372886   -1.413631
H       1.392163   -2.436569    0.150161
H      -1.143865   -3.003384   -0.865117
