18

O      -0.296895    0.075102    0.102564
C      -0.000190    1.240609    0.080888
C       1.366287    1.779276   -0.303987
C       1.277913    2.841572   -1.365874
C       1.019622    2.693977   -2.858888
N       1.557240    4.096385   -3.065840
C       0.492070    4.926958   -2.372604
C       0.923659    4.319392   -1.049995
C       2.234520    3.955511   -1.683375
H      -0.740363    2.029723    0.349161
H       1.813177    2.209891    0.604406
H       1.993854    0.939313   -0.619016
H       1.696486    1.973234   -3.326470
H       0.000188    2.535549   -3.229374
H       0.750328    5.985898   -2.454159
H      -0.526241    4.765144   -2.743902
H       0.737211    4.647366   -0.034294
H       3.274051    4.148689   -1.459057
