23

C      -0.200965    1.727599   -0.205225
C      -0.262783    0.196136   -0.149077
C       0.715722   -0.500115   -1.104346
O       0.451158   -0.109344   -2.460119
C       2.207037   -0.267988   -0.762043
O       2.918896   -1.445916   -1.116197
C       2.017909   -2.365007   -1.735929
C       0.639890   -2.047230   -1.140748
C       0.436031   -2.719050    0.220970
H       0.790859    2.107190    0.064524
H      -0.448695    2.099858   -1.204664
H      -0.920167    2.169150    0.490496
H      -0.065788   -0.135433    0.875701
H      -1.277530   -0.132820   -0.402322
H       0.749797    0.798099   -2.575431
H       2.603610    0.596012   -1.315604
H       2.353596   -0.072277    0.308843
H       2.011488   -2.223848   -2.824645
H       2.367617   -3.377336   -1.510519
H      -0.162908   -2.335833   -1.825294
H       1.237051   -2.459173    0.920897
H      -0.519045   -2.443855    0.676581
H       0.443447   -3.807355    0.104113
