18

O       0.497725    0.850388   -0.668827
C       0.100950   -0.349429   -0.035720
C       0.584228   -0.451338    1.399610
N      -0.101357    0.566205    2.234576
C      -0.537217   -0.849565    2.282237
C      -1.774232   -1.121216    1.449828
C      -1.432577   -0.533299    0.079239
C      -2.354998    0.299123   -0.698854
O      -2.109528   -1.066243   -1.057388
H       0.272234    1.554986   -0.046881
H       0.507747   -1.162831   -0.646180
H       1.618189   -0.701120    1.609951
H       0.468940    0.769378    3.051347
H      -0.365123   -1.410506    3.194856
H      -1.930363   -2.202055    1.353729
H      -2.682005   -0.686926    1.878679
H      -3.349010    0.507638   -0.304056
H      -1.949544    1.037102   -1.386861
