20

C       0.014659    1.547491    0.006029
C       0.004037    0.016443    0.062228
C      -1.402054   -0.585287   -0.015830
C      -2.119398   -0.452439   -1.413850
C      -2.398124   -1.951196   -1.692993
N      -2.829735   -2.515367   -0.368039
C      -1.460360   -2.134940    0.117770
C      -1.030451   -2.557103   -1.304383
O      -0.125793   -3.121618   -1.832362
H       1.034758    1.937150    0.073392
H      -0.421076    1.918508   -0.927614
H      -0.561560    1.976588    0.833366
H       0.619522   -0.389558   -0.750778
H       0.479039   -0.314087    0.995111
H      -2.020831   -0.142884    0.774605
H      -3.046505    0.125534   -1.366753
H      -1.477204    0.003920   -2.174066
H      -2.954264   -2.236506   -2.584168
H      -3.558743   -1.949208    0.068384
H      -1.085692   -2.598713    1.029088
