19

C      -0.018092    1.571893   -0.085307
C       0.080066    0.054310    0.022584
N       0.625316   -0.519707   -1.197470
C       0.765950   -1.863670   -1.351174
C       0.302694   -2.882779   -0.593409
C       0.682568   -4.163304   -1.214481
O       0.384527   -5.295316   -0.894334
N       1.506516   -3.835183   -2.298831
C       1.508692   -2.413028   -2.554834
H       0.969927    2.023442   -0.231415
H      -0.656687    1.865268   -0.923950
H      -0.440286    1.991440    0.831269
H       0.690822   -0.229064    0.893976
H      -0.915827   -0.375246    0.184478
H       1.258899    0.067111   -1.718390
H      -0.263474   -2.830784    0.322876
H       1.606354   -4.504725   -3.044288
H       0.986082   -2.142374   -3.484304
H       2.526528   -2.000061   -2.618241
