19

C      -0.528869    1.359069   -0.181172
C      -0.278090   -0.070019   -0.048971
C      -0.056929   -1.247744    0.086234
C       0.187334   -2.688294    0.239119
N      -1.014473   -3.523811    0.315098
C      -1.788434   -3.552734   -0.703203
N      -1.663196   -2.863257   -1.885893
C      -2.961716   -4.520340   -0.680173
O      -4.115054   -4.008706   -1.340548
H       0.012896    1.785078   -1.032926
H      -1.594669    1.565107   -0.330534
H      -0.212028    1.900952    0.716737
H       0.834795   -3.023585   -0.588283
H       0.759637   -2.850014    1.159415
H      -1.149359   -1.994073   -1.857931
H      -2.504673   -2.848570   -2.444893
H      -2.688492   -5.427325   -1.231066
H      -3.153608   -4.798548    0.360631
H      -4.480616   -3.309999   -0.787711
