23

C       0.009485    1.524602   -0.019664
C      -0.041126   -0.005428   -0.023115
C      -1.377678   -0.521331    0.603227
C      -0.657773   -0.616781    1.976591
C       0.693764   -0.601271    1.229503
O       1.111278   -1.946685    1.069367
C       1.798903   -2.204774   -0.142572
C       0.864164   -2.009543   -1.333837
C       0.399902   -0.548351   -1.387901
H       1.027791    1.885490   -0.204593
H      -0.637031    1.930595   -0.806418
H      -0.325897    1.946763    0.933038
H      -2.239777    0.146756    0.525910
H      -1.662845   -1.506278    0.226378
H      -0.807111    0.270513    2.595810
H      -0.830887   -1.509221    2.579798
H       1.517498    0.001463    1.642522
H       2.684740   -1.552077   -0.238128
H       2.152601   -3.237797   -0.072834
H       1.371364   -2.282665   -2.266195
H       0.012699   -2.690484   -1.217108
H      -0.411235   -0.419274   -2.115919
H       1.237171    0.063670   -1.751839
