19

C       0.545017    0.879323    1.235025
C       0.143962   -0.211663    0.357650
C      -0.178577   -1.108890   -0.377513
C      -0.573213   -2.204827   -1.255207
C      -1.665718   -3.069588   -0.681130
C      -2.823328   -2.653534    0.167227
C      -1.896284   -3.760577    0.643609
C      -2.145440   -5.003642   -0.199848
O      -1.998346   -4.245805   -1.433635
H       1.598261    1.141361    1.085389
H      -0.049677    1.780674    1.050037
H       0.419062    0.610173    2.289567
H      -0.919102   -1.809734   -2.221264
H       0.291590   -2.842300   -1.480804
H      -2.697429   -1.712054    0.690987
H      -3.835425   -2.881788   -0.157178
H      -1.343013   -3.711522    1.571243
H      -1.356936   -5.760524   -0.119605
H      -3.128510   -5.484028   -0.124258
