19

C      -0.170157    1.523891   -0.116690
C       0.001045    0.011731   -0.046505
C       1.189673   -0.540777   -0.886819
C       2.050855   -0.620750    0.399309
C       0.738573   -0.521182    1.245003
C       0.738821    0.272072    2.450361
C       0.744342    0.947968    3.456645
C       0.754434    1.706503    4.585512
C       0.763261    2.380133    5.588338
H       0.777502    2.047296    0.049580
H      -0.545227    1.816842   -1.103177
H      -0.878425    1.879430    0.637773
H      -0.961024   -0.476526   -0.224822
H       0.978542   -1.528579   -1.305365
H       1.556773    0.103658   -1.689267
H       2.659887   -1.513253    0.554702
H       2.679965    0.260801    0.538001
H       0.373769   -1.528932    1.473595
H       0.772062    2.971569    6.469672
