18

C       0.000568    1.467366    0.079154
C      -0.059051   -0.015611   -0.097122
C       0.624002   -0.942418   -1.125618
C       0.000390   -1.839372   -0.034787
C       0.155907   -3.299844    0.242131
O       0.511064   -0.873633    0.994424
C      -1.292051   -0.969568   -0.092915
O      -2.116586   -0.958244    1.024841
H       1.029302    1.800452    0.245471
H      -0.387603    1.968680   -0.813098
H      -0.609272    1.772191    0.935451
H       0.204147   -0.990595   -2.134716
H       1.714005   -0.906629   -1.118002
H       1.203729   -3.553203    0.428619
H      -0.434824   -3.584546    1.118517
H      -0.196762   -3.885047   -0.613012
H      -1.911160   -1.020478   -0.992085
H      -1.503394   -0.912624    1.774533
