23

C      -0.190375    1.613727   -0.004730
C      -0.098767    0.076827   -0.014052
C       0.705638   -0.466974   -1.174299
C       1.996141   -0.821329   -1.111291
C       2.884931   -0.705891    0.099061
C       2.708432   -1.388063   -2.322015
O       1.869482   -1.743558   -3.398450
C       0.905417   -0.741939   -3.664452
C      -0.047963   -0.591760   -2.483423
H       0.799516    2.062804    0.123421
H      -0.607440    1.995899   -0.942193
H      -0.831148    1.963606    0.811046
H       0.310609   -0.265211    0.940820
H      -1.114518   -0.336927   -0.072255
H       3.193941   -1.695874    0.460382
H       3.808542   -0.167848   -0.152110
H       2.413907   -0.176759    0.928324
H       3.479948   -0.666650   -2.656423
H       3.243837   -2.304194   -2.040625
H       1.401445    0.221536   -3.872185
H       0.378408   -1.052099   -4.571456
H      -0.727728   -1.454784   -2.439276
H      -0.685842    0.289047   -2.637064
