19

C       0.093155    1.629678    0.270389
C       0.045667    0.103624    0.163003
C       0.763833   -0.590403    1.325324
C       0.755719   -2.129466    1.166648
O       1.354101   -2.528826   -0.040761
C       1.472664   -2.783104    2.331407
O       2.528701   -3.362039    2.187859
C       0.856584   -2.736179    3.732255
O      -0.216690   -2.251319    3.974681
H       1.125999    1.995492    0.267382
H      -0.427807    2.100411   -0.568983
H      -0.379086    1.980357    1.194849
H      -0.998957   -0.233224    0.136682
H       0.501707   -0.224001   -0.776323
H       1.807770   -0.253300    1.372108
H       0.286032   -0.326608    2.274966
H      -0.291609   -2.467838    1.184038
H       2.189903   -2.956023    0.199217
H       1.498968   -3.220984    4.496616
