19

C      -0.292942    1.260127    0.059936
O       0.212774   -0.057368   -0.079804
C       0.822434   -0.539584    1.053687
C       0.030859   -1.079528    2.229242
C       0.926085   -2.019535    1.440603
C       0.442054   -3.215841    0.674198
C       2.363162   -1.751957    1.856608
O       3.094814   -1.265344    0.727431
C       2.271291   -0.335884    1.454377
H       0.510248    1.983533    0.258470
H      -0.774318    1.518049   -0.885739
H      -1.030765    1.323303    0.871938
H       0.268483   -0.803609    3.253309
H      -1.031480   -1.194247    2.031639
H      -0.521986   -3.008688    0.199790
H       1.155120   -3.475826   -0.114219
H       0.316738   -4.088197    1.325482
H       2.929245   -2.186719    2.672590
H       2.765516    0.531073    1.876760
