18

O       0.266601    1.254122   -0.492762
C       0.087192    0.039970    0.206107
C      -1.342335   -0.476435    0.099160
C      -2.343314    0.259112    0.962632
O      -2.329136    1.634791    0.577232
C      -1.796441   -1.002993   -1.227889
C      -1.603125   -1.971611   -0.070200
C      -0.517611   -2.911797   -0.081486
N       0.351968   -3.675185   -0.085200
H      -0.449928    1.837250   -0.210057
H       0.784815   -0.681358   -0.229560
H       0.351775    0.139927    1.272474
H      -3.349493   -0.168376    0.834786
H      -2.063486    0.152147    2.021147
H      -2.778341    2.150411    1.253569
H      -2.817503   -0.823741   -1.545502
H      -1.066548   -1.030724   -2.028013
H      -2.503557   -2.361234    0.395109
