21

C       0.038960    1.556604   -0.141862
C      -0.066860    0.030453   -0.103730
C       0.828310   -0.643576   -1.143767
C       0.742104   -2.155320   -1.113014
O       0.062147   -2.806814   -0.362217
O       1.558668   -2.693586   -2.051903
C       1.570792   -4.107510   -2.136813
C       0.908635   -4.740838   -3.322843
C       2.421591   -4.670302   -3.226037
H       1.063344    1.891210    0.057383
H      -0.251981    1.953294   -1.121180
H      -0.611811    2.015285    0.608563
H       0.199080   -0.342343    0.891090
H      -1.103837   -0.280733   -0.269225
H       0.576091   -0.313446   -2.159599
H       1.880381   -0.364806   -1.003285
H       1.512158   -4.593179   -1.171161
H       0.412466   -5.694620   -3.184040
H       0.429211   -4.074753   -4.030955
H       2.924963   -3.958490   -3.870224
H       2.981444   -5.576344   -3.024112
