19

C      -0.108469    1.441787    0.037051
C      -0.057143   -0.061624    0.016791
C       0.838299   -0.974818   -0.899812
C       2.008903   -0.963733    0.101590
C       0.748000   -1.012915    0.985825
C      -0.003648   -1.952822   -0.018198
C      -1.261707   -1.049913   -0.096531
C      -2.235886   -1.095346    1.038695
O      -3.436599   -1.075896    0.915486
H       0.898734    1.868318    0.097386
H      -0.584347    1.829366   -0.870137
H      -0.680222    1.808603    0.896238
H       0.853931   -0.956051   -1.990957
H       2.650629   -1.850271    0.114415
H       2.615344   -0.053928    0.149603
H       0.682891   -1.037494    2.074025
H       0.041799   -3.042084   -0.039715
H      -1.796022   -1.041997   -1.052166
H      -1.772359   -1.146926    2.051683
