17

N       0.115455   -1.039212    0.738222
C       0.042172    0.051887    0.364930
C      -0.025848    1.441241   -0.140956
N      -0.825844    2.311691    0.747287
C       0.102228    3.250201    1.382588
C      -0.426446    4.547901    1.930273
C       0.038686    3.471476    2.881164
C       1.401140    3.094985    0.684019
C       1.356681    2.081709   -0.176114
H      -0.482960    1.386383   -1.136930
H      -1.487529    2.826921    0.179340
H       0.177399    5.441020    1.810701
H      -1.495701    4.717312    1.849383
H      -0.717629    2.906010    3.412439
H       0.967691    3.621866    3.420395
H       2.265227    3.710461    0.902498
H       2.162350    1.695125   -0.785109
