17

N      -0.115821   -1.158881    0.025388
C      -0.063476   -0.003814    0.037201
C       0.011072    1.436089    0.006055
N       0.587216    2.098087    1.224155
C       1.306648    2.157246   -0.019118
C       2.756983    1.750274   -0.311638
C       2.485500    2.228762   -1.772474
C       1.836563    3.323016   -0.867790
C       3.122209    3.233583    0.019031
H      -0.840285    1.911957   -0.473963
H       0.072043    2.956719    1.409329
H       3.268646    0.846385    0.013173
H       3.364665    2.545343   -2.337509
H       1.810674    1.619184   -2.377477
H       1.299431    4.218872   -1.181392
H       3.029506    3.542110    1.062340
H       4.039913    3.611404   -0.437616
