18

O       0.263305    1.432993   -0.032979
C       0.033313    0.051578   -0.066354
C      -1.386363   -0.510025    0.017813
C      -2.177275   -0.176681   -1.215093
C      -1.169321   -1.285360   -1.298762
C       0.224323   -0.701079   -1.440346
O       0.363458    0.143697   -2.577861
C       1.582343    0.691612   -2.775077
N       1.743595    1.545958   -3.689583
H      -0.260256    1.845292   -0.729286
H       0.680774   -0.379864    0.701064
H      -1.866542   -0.852663    0.925937
H      -3.212738   -0.498972   -1.191458
H      -2.019106    0.743157   -1.769868
H      -1.442355   -2.304177   -1.539181
H       1.029614   -1.442374   -1.419165
H       2.352546    0.309798   -2.092625
H       2.717362    1.841121   -3.718994
