13

C      -0.013355    1.401216    0.009225
O      -0.001282   -0.029487    0.004598
C      -1.190823   -0.631902    0.011661
C      -1.420173   -1.981433    0.009329
O      -2.771806   -2.161144    0.019576
C      -3.284345   -0.914027    0.025395
N      -2.389140    0.036350    0.023070
C      -4.693962   -0.771634    0.036670
N      -5.845067   -0.653659    0.045898
H       1.034625    1.701059    0.002100
H      -0.524192    1.791532   -0.875765
H      -0.510472    1.785890    0.904443
H      -0.801727   -2.859731    0.002154
