16

O       0.000369    1.443929   -0.115088
C       0.020116    0.050343   -0.012944
C      -0.049153   -0.616975    1.383578
C      -1.518107   -0.094158    1.570509
C      -1.356611   -0.613997    0.096417
N      -0.651328   -1.839745    0.686874
C      -1.599715   -2.438311    1.647901
C      -2.236987   -1.201109    2.300687
O      -3.076103   -1.138506    3.159554
H       0.907767    1.762985   -0.112560
H       0.709493   -0.431525   -0.715043
H       0.720674   -0.722995    2.150937
H      -1.748306    0.941096    1.804225
H      -2.135145   -0.712854   -0.662046
H      -2.340159   -3.058818    1.133457
H      -1.075712   -3.062813    2.378087
