14

N      -0.002333    1.432623   -0.083917
C      -0.040379    0.033796   -0.031231
C      -1.221060   -0.713432   -0.005711
C      -1.180665   -2.101871   -0.019916
C       0.068016   -2.717978   -0.064918
O       0.148858   -4.068405   -0.083589
N       1.208461   -2.031440   -0.087580
C       1.132978   -0.722812   -0.068884
F       2.295116   -0.055161   -0.082969
H       0.893791    1.810373    0.190802
H      -0.753774    1.881834    0.420984
H      -2.176194   -0.198009    0.022295
H      -2.082265   -2.699870    0.001409
H       1.090261   -4.283475   -0.113798
