19

C      -0.023068    1.633059   -0.147417
C       0.071472    0.132514    0.066210
O       0.757931   -0.414487   -1.060445
C       0.816831   -1.810126   -1.179650
C       1.368566   -2.562423    0.048803
C      -0.540198   -2.432650   -1.567572
O      -1.560702   -1.811390   -1.682886
C       1.742959   -2.061091   -2.380426
O       2.134160   -3.150320   -2.705412
H       0.973287    2.070663   -0.258036
H      -0.599870    1.853925   -1.049399
H      -0.516598    2.105254    0.707182
H       0.628183   -0.087936    0.988500
H      -0.927569   -0.306746    0.153908
H       0.659033   -2.557876    0.880021
H       1.582034   -3.596605   -0.229820
H       2.299447   -2.092584    0.377573
H      -0.486700   -3.529705   -1.740127
H       1.996437   -1.131001   -2.929274
