14

N       0.098197    1.377801    0.148870
C      -0.035975   -0.005297    0.045956
C      -1.207459   -0.691210    0.023363
C      -1.204574   -2.137489   -0.001699
N      -2.294384   -2.829448   -0.023953
C       0.154732   -2.703673   -0.013673
N       1.259204   -2.035964    0.003904
N       1.157439   -0.687743    0.011891
H       0.772762    1.776052   -0.493505
H      -0.786933    1.859540    0.070590
H      -2.154807   -0.166584    0.009445
H      -2.074659   -3.827454   -0.052702
H       0.268608   -3.785431   -0.030621
H       2.022880   -0.208324    0.197915
