17

O       0.214483    1.419744   -0.128536
C       0.051898    0.009928   -0.079901
C       0.761158   -0.630060    1.117067
C      -0.081585   -1.219113    1.981406
C      -1.460339   -1.167801    1.433286
C      -2.813695   -0.527359    1.798294
C      -2.725163    0.288930    0.452785
C      -1.391760   -0.427164    0.160974
O      -1.618692   -1.829848    0.158433
H       0.114934    1.751918    0.770507
H       0.444122   -0.365640   -1.030771
H       1.842487   -0.610136    1.206211
H       0.204207   -1.707770    2.905491
H      -3.647431   -1.224284    1.903834
H      -2.761879    0.113077    2.681376
H      -3.513714    0.127890   -0.285263
H      -2.598915    1.360073    0.620252
