27

C       1.182302    1.442858    0.297543
C       0.211509    0.298579   -0.027097
C       0.536800   -0.443791   -1.322767
C       1.735916   -1.372646   -1.274074
C       0.346643   -1.949620   -1.388916
C      -0.267608   -2.797082   -0.294407
C       0.212322    0.369248   -2.593401
C       1.018485   -0.018440   -3.841245
C      -1.295284    0.322668   -2.900615
H       2.208877    1.072505    0.387082
H       1.178465    2.220166   -0.473065
H       0.914006    1.921725    1.244783
H       0.217859   -0.402728    0.812659
H      -0.811115    0.694373   -0.074482
H       2.404493   -1.445441   -2.123626
H       2.237228   -1.471747   -0.314984
H       0.096391   -2.312170   -2.383987
H       0.063329   -2.495171    0.702860
H      -1.362557   -2.747960   -0.310984
H       0.017007   -3.847789   -0.421983
H       0.466494    1.414946   -2.375686
H       0.861935   -1.065080   -4.126831
H       0.708042    0.596475   -4.692358
H       2.091301    0.135839   -3.696176
H      -1.545855    0.994351   -3.728528
H      -1.605200   -0.688646   -3.186509
H      -1.898029    0.621500   -2.037840
