18

C       0.012099    1.605724    0.013604
C       0.035655    0.072184   -0.046095
C       0.776291   -0.529872    1.162108
N       0.781223   -1.979782    1.076675
O      -1.299253   -0.451418    0.059315
C      -2.138163   -0.350395   -1.002693
N      -3.360167   -0.608626   -0.839157
C       0.683311   -0.370145   -1.302186
N       1.194433   -0.645811   -2.300969
H       1.029238    2.005677   -0.001031
H      -0.531065    2.021024   -0.838405
H      -0.486864    1.919307    0.933653
H       1.808546   -0.166417    1.143466
H       0.290412   -0.113054    2.059651
H       1.373778   -2.377340    1.796155
H      -0.157845   -2.336027    1.219003
H      -1.641956   -0.070018   -1.938184
H      -3.854350   -0.527362   -1.725629
