20

C       0.022636    1.441877    0.068933
N       0.009273   -0.011665    0.068474
C       1.311123   -0.643995    0.138425
C      -1.193789   -0.667200    0.001267
O      -2.256298   -0.066698   -0.057319
C      -1.165433   -2.197579    0.002220
C      -2.589997   -2.773504   -0.076517
C      -2.590676   -4.231166   -0.076879
C      -2.564909   -5.433131   -0.075734
H       0.588674    1.823157   -0.790589
H      -1.005337    1.794903    0.014002
H       0.494096    1.823235    0.983669
H       1.838603   -0.344237    1.054038
H       1.229414   -1.728569    0.134770
H       1.933493   -0.345348   -0.715971
H      -0.573451   -2.566241   -0.842860
H      -0.669917   -2.566677    0.907087
H      -3.180126   -2.392158    0.763024
H      -3.084153   -2.391827   -0.975775
H      -2.562969   -6.494681   -0.075877
