12

N       0.016489    1.311748    0.007988
C      -0.034565   -0.031713    0.001325
N      -1.189333   -0.635194    0.004210
C      -1.215675   -1.993138   -0.003253
N      -2.250298   -2.714258   -0.001176
O       0.076055   -2.664558   -0.013803
C       1.168620   -1.917690   -0.015675
N       1.225525   -0.638316   -0.009000
H       0.908549    1.772095    0.005420
H      -0.839653    1.838069    0.015346
H      -2.001896   -3.701269   -0.007820
H       2.077759   -2.515983   -0.023815
