16

O       0.170422   -0.000681    0.342676
C       0.157747    1.187088    0.275690
O      -0.939944    2.029187    0.359198
C      -0.103159    3.162202   -0.016672
C       0.899107    3.392253    1.048817
C       1.142028    2.297225   -0.009772
C       2.347852    2.204041   -0.867810
C       3.178430    0.969689   -0.845020
N       2.379353    1.307752   -2.035048
H      -0.501797    3.848748   -0.749273
H       1.546095    4.256550    0.925777
H       0.663495    3.129911    2.075259
H       2.844337    3.156897   -1.040444
H       4.254236    1.042831   -0.975330
H       2.838885    0.153198   -0.214887
H       1.543754    0.726761   -2.053701
