21

C      -0.160519    1.474041   -0.002045
C      -0.013451   -0.029646    0.039008
C       0.869970   -0.839720   -0.983909
C       0.749535   -1.944111    0.122861
C       0.814780   -0.766608    1.130559
C      -0.754713   -2.266518    0.015205
C      -1.730645   -1.781842    1.077417
C      -1.314537   -0.873274   -0.054103
O      -2.230692   -0.521975   -1.047968
H       0.814826    1.970119   -0.027844
H      -0.718691    1.784999   -0.891783
H      -0.697977    1.844154    0.879775
H       0.432360   -1.051521   -1.962959
H       1.881465   -0.436179   -1.090597
H       1.442688   -2.783158    0.184089
H       1.825017   -0.355271    1.200151
H       0.407799   -0.882751    2.136338
H      -1.081577   -3.033873   -0.676828
H      -2.733199   -2.184405    0.968096
H      -1.434751   -1.617917    2.106986
H      -2.802288    0.167861   -0.693853
