23

C       0.090592    1.650839   -0.131741
C       0.051787    0.121658   -0.002358
C       0.583138   -0.559677   -1.267588
O      -0.220899   -0.156729   -2.368297
C       0.787610   -0.389237    1.214840
C       0.392478   -1.662365    1.918505
C       0.372806   -0.371080    2.691418
C       1.796783   -0.002009    3.116967
C       2.236004   -0.041300    1.615917
H       1.117234    2.015054   -0.252201
H      -0.478568    1.970909   -1.006937
H      -0.333117    2.128040    0.757284
H      -0.999745   -0.182372    0.097067
H       1.637658   -0.275955   -1.422590
H       0.552077   -1.651891   -1.132916
H       0.146180   -0.544883   -3.167426
H      -0.582240   -2.057056    1.647203
H       1.132713   -2.426995    2.148804
H      -0.540070    0.007911    3.137055
H       1.874529    1.001972    3.540252
H       2.291566   -0.704827    3.796118
H       2.997135   -0.780257    1.343121
H       2.563530    0.937779    1.259985
