21

C      -0.046252    1.528619   -0.541701
C      -0.015763    0.141120    0.100476
N      -1.322850   -0.492383    0.124424
C      -1.773972   -1.513094   -0.644513
C      -3.092785   -1.720662   -0.301659
C      -3.361214   -0.758706    0.700965
C      -4.629771   -0.539640    1.470731
C      -4.877818   -1.613806    2.543301
N      -2.279856   -0.017370    0.949010
H       0.949150    1.982048   -0.508667
H      -0.365426    1.469344   -1.586540
H      -0.743563    2.174534   -0.003403
H       0.657457   -0.527900   -0.443250
H       0.341780    0.208189    1.132486
H      -1.131814   -2.000793   -1.361672
H      -3.763065   -2.459942   -0.710466
H      -4.577094    0.446755    1.941683
H      -5.479038   -0.518268    0.776935
H      -5.812130   -1.421745    3.080585
H      -4.943956   -2.611208    2.096793
H      -4.061382   -1.628599    3.271679
