15

O       0.250992   -0.000995   -0.039682
C       0.063601    1.169978    0.024704
C      -1.163768    2.093518    0.120588
C      -0.138364    3.230117    0.081690
C      -0.236550    4.451078   -0.801370
C      -1.193844    5.427942   -0.278305
N      -1.956222    6.184253    0.146992
C       0.851479    3.072536    1.154189
N       1.030112    2.259674   -0.096076
H      -1.784260    2.020732   -0.776916
H      -1.799661    2.008419    1.004300
H       0.747160    4.924104   -0.889726
H      -0.543790    4.162850   -1.813493
H       1.626214    3.824378    1.263255
H       0.585254    2.559242    2.074493
