20

C      -0.083868    1.620374    0.094484
N       0.009169    0.179136    0.121547
C      -1.218854   -0.655786    0.316917
C      -0.397556   -1.537786    1.290756
C       0.533814   -2.704230    0.870621
C       1.723501   -1.664359    0.782485
C       0.722411   -0.540461    1.189869
C       0.429436   -0.274743    2.687398
O      -0.609834   -1.308515    2.697977
H       0.920976    2.051036    0.027827
H      -0.643175    1.937673   -0.792640
H      -0.585976    2.056168    0.978426
H      -2.042909   -0.146740    0.837727
H      -1.599063   -1.104696   -0.607973
H       0.641601   -3.466487    1.644424
H       0.273858   -3.190417   -0.072602
H       2.544960   -1.841086    1.481804
H       2.129187   -1.529292   -0.220968
H       1.239170   -0.510971    3.387839
H       0.021014    0.713764    2.929581
