19

C      -0.746808    1.325809    0.052115
C       0.004237    0.016120   -0.049219
O       1.155214    0.086315   -0.938400
C       2.000379   -0.599278    0.012688
C       2.809537    0.446011    0.809153
O       3.885541    0.948205    0.676499
C       1.694428    0.562955    1.870334
C       0.878426   -0.528312    1.109454
C       0.369882   -1.706306    1.909344
H      -0.096618    2.143662    0.371906
H      -1.162098    1.591141   -0.925205
H      -1.578779    1.236157    0.759191
H      -0.676939   -0.770560   -0.407577
H       2.476741   -1.497982   -0.389556
H       2.051329    0.217971    2.847311
H       1.246819    1.550241    2.005071
H      -0.441453   -1.403089    2.581825
H      -0.016102   -2.495635    1.256094
H       1.162280   -2.140701    2.528323
