18

C      -0.065924    1.578497   -0.129774
C      -0.096364    0.080673   -0.027006
C      -0.194181   -0.954801   -1.094733
C       1.208766   -1.640031   -1.133034
O       1.998599   -1.018253   -0.054688
C       0.916893   -0.761638    0.757239
N       0.490421   -1.597560    1.612526
C      -0.983683   -1.597854    1.452887
C      -1.216366   -0.887881    0.110475
H       0.907236    1.925094   -0.493427
H      -0.830917    1.930812   -0.828840
H      -0.252321    2.053534    0.839471
H      -0.642241   -0.727690   -2.057719
H       1.185312   -2.718784   -0.952508
H       1.715981   -1.421384   -2.076233
H      -1.297077   -2.647526    1.469306
H      -1.520010   -1.083831    2.262629
H      -2.228409   -0.624260   -0.184220
