19

C       0.268596    1.090538   -0.432839
N      -0.000284   -0.202695    0.192732
C       0.533071   -0.275916    1.554132
C      -1.380531   -0.592364    0.152386
C      -1.997675   -0.985190   -1.164477
C      -1.586303   -2.071284   -0.185790
O      -0.446152   -2.815859   -0.460334
C      -2.607205   -2.808696    0.516976
N      -3.446490   -3.368952    1.081686
H       1.349334    1.256152   -0.471547
H      -0.118326    1.097996   -1.454107
H      -0.187593    1.930942    0.117157
H       0.060134    0.455707    2.231407
H       0.368956   -1.277746    1.959147
H       1.608917   -0.080338    1.536691
H      -2.047322   -0.153614    0.897816
H      -3.050972   -0.776301   -1.309486
H      -1.382154   -0.933871   -2.055823
H       0.275896   -2.162126   -0.432554
