13

C       0.117302    1.325104    0.157065
O      -0.218429    0.209621   -0.679899
C      -1.278369   -0.507457   -0.275527
C      -1.358795   -1.735192    0.250762
O      -2.691246   -2.069516    0.434600
C      -3.478574   -1.019977    0.006820
O      -4.677778   -1.018477    0.013092
N      -2.595373   -0.037964   -0.399678
H       0.995213    1.789914   -0.292787
H      -0.700565    2.053844    0.198532
H       0.351113    0.986441    1.172321
H      -0.617441   -2.460597    0.530644
H      -2.893810    0.775505   -0.909410
