16

C      -0.036073    1.500400   -0.012154
C       0.010237    0.007430    0.016592
C      -0.068415   -1.013231   -1.112480
C       0.792449   -2.012220   -0.288612
C       0.884934   -0.984134    0.851287
C      -0.242306   -2.008908    0.810140
O      -0.552996   -3.041427    1.653678
C      -1.128949   -1.006906   -0.014242
H       0.930206    1.927635   -0.305285
H      -0.785388    1.848445   -0.731865
H      -0.300936    1.914028    0.968387
H      -0.189075   -0.863362   -2.178220
H       1.499669   -2.781518   -0.566671
H       1.680120   -0.839487    1.571333
H      -0.811591   -2.671904    2.506238
H      -2.196240   -0.841066   -0.091189
