21

C      -0.528849    1.486906    0.073239
C       0.048563    0.069230    0.006272
O      -1.019661   -0.881844   -0.043551
C       0.988547   -0.063143   -1.224835
O       2.025755   -1.023902   -1.077671
C       2.493318   -1.154558    0.260557
C       1.371670   -1.744469    1.148904
C       0.859974   -0.279748    1.267839
C       2.340663    0.164807    1.067233
H       0.248904    2.232092    0.265712
H      -1.018938    1.756078   -0.871071
H      -1.273284    1.543015    0.872133
H      -1.586335   -0.653045   -0.787653
H       0.404115   -0.362474   -2.101896
H       1.428699    0.920649   -1.446374
H       3.464990   -1.648269    0.200779
H       0.710390   -2.478543    0.690610
H       1.755958   -2.113300    2.103649
H       0.328275    0.022336    2.173066
H       2.900483    0.110971    2.003626
H       2.560821    1.114688    0.573557
