16

O      -0.039158    0.185177   -0.901306
C      -0.033033    1.223874   -0.300458
C      -1.268160    1.987418    0.212824
C      -0.697862    3.171320    0.957152
C       0.167488    2.907969    2.152918
C       0.250110    1.597431    2.731069
C       0.336939    0.499292    3.215573
N       0.780485    3.222492    0.833400
C       1.210768    2.053948    0.062611
H      -1.875543    2.299563   -0.643155
H      -1.879933    1.321726    0.827551
H      -1.206595    4.128676    0.896244
H       0.294740    3.721981    2.862434
H       0.408971   -0.468880    3.646956
H       1.930298    1.437681    0.608628
H       1.694481    2.396428   -0.859235
