20

C       0.188891    1.528161   -0.144426
C      -0.078884    0.033429    0.110313
C       0.640226   -0.495422    1.306589
C       0.198106   -1.009627    2.459479
C       1.468178   -1.371920    3.192217
C       2.529992   -0.254678    2.943733
C       3.573031   -1.371311    2.853144
N       2.398440   -2.005759    2.104364
C       2.149658   -0.599065    1.470678
H       1.255611    1.721221   -0.298323
H      -0.344512    1.871782   -1.035868
H      -0.140090    2.133603    0.705699
H      -1.154983   -0.132911    0.231647
H       0.226227   -0.536351   -0.778456
H      -0.815301   -1.178714    2.795902
H       1.430804   -1.908303    4.141491
H       2.593427    0.736090    3.412913
H       4.453213   -1.207154    2.224573
H       3.843172   -1.902534    3.770625
H       2.813101   -0.338767    0.643481
