19

C      -0.151617    1.445723   -0.233293
N      -0.171098   -0.019086   -0.177628
C      -0.304032   -0.565038    0.937654
C      -0.364363   -1.988797    1.447543
C      -0.533904   -1.315962    2.825035
O      -0.459298    0.003038    2.200672
C       1.259487    1.982532   -0.116686
C       1.496798    3.298782    0.524089
N       1.911170    2.056715    1.200274
H      -0.574061    1.744234   -1.199421
H      -0.773628    1.893395    0.555013
H      -1.215355   -2.568784    1.087055
H       0.553418   -2.561429    1.305379
H      -1.497412   -1.458911    3.319791
H       0.283081   -1.455542    3.536440
H       1.928894    1.661209   -0.912064
H       2.311785    3.933100    0.186573
H       0.634700    3.840111    0.907012
H       1.236334    1.811170    1.921723
