19

O      -0.002912    1.386217   -0.082230
C      -0.010319   -0.022736    0.030740
C      -1.416585   -0.578287    0.114720
C      -1.596468   -2.112362    0.083029
C      -3.052918   -2.224588   -0.465487
C      -3.392561   -0.731934   -0.642270
O      -3.641699   -0.153718    0.633738
C      -2.334683   -0.000421    1.214619
O      -2.162502   -0.168907   -1.060153
H      -0.606428    1.602290   -0.803273
H       0.505955   -0.500736   -0.816780
H       0.544748   -0.273895    0.941015
H      -0.873157   -2.568088   -0.598120
H      -1.471193   -2.566304    1.068684
H      -3.089254   -2.752026   -1.421860
H      -3.744793   -2.707227    0.226878
H      -4.200507   -0.473388   -1.326239
H      -2.268728   -0.555008    2.157051
H      -2.127968    1.058498    1.394372
