17

C      -0.192746    1.460346   -0.148780
C      -0.023943   -0.046742   -0.028668
C       1.132044   -0.624278   -0.936374
O       1.535836    0.031754   -2.095875
C       2.019293   -0.497252    0.299901
O       3.155166   -0.142383    0.420256
C       0.789074   -0.518595    1.246479
C       0.807424    0.276599    2.448544
C       0.832405    0.954657    3.440863
H       0.754269    1.987960    0.006965
H      -0.559185    1.719356   -1.145507
H      -0.900744    1.832043    0.596351
H      -0.977424   -0.563411   -0.148110
H       0.919971   -1.676631   -1.165795
H       2.318005    0.553274   -1.876460
H       0.534149   -1.561459    1.469925
H       0.859869    1.548987    4.320484
