17

C       0.024287    1.522508    0.012804
C       0.047482    0.024219    0.080681
C       1.236162   -0.860896   -0.351870
C       0.673727   -0.992657    1.014667
C       1.330027   -0.919175    2.354384
O       1.974708   -2.131348    2.701961
O      -0.511423   -1.851382    0.925525
C      -1.152882   -0.887790    0.151948
O      -2.286356   -0.884822   -0.201538
H       1.015697    1.939563    0.212828
H      -0.282789    1.857485   -0.983174
H      -0.677656    1.943968    0.738507
H       1.100688   -1.662627   -1.070490
H       2.170954   -0.313651   -0.438025
H       2.106038   -0.147517    2.334694
H       0.582458   -0.627642    3.107023
H       1.298242   -2.816929    2.736528
