14

O      -0.092248    1.395783    0.099077
C       0.029373   -0.000577    0.124199
C      -1.315567   -0.744838    0.027749
C      -0.962091   -1.386705   -1.321783
N      -0.968620   -2.142201   -0.069667
C      -1.850864   -3.200234    0.135038
O      -2.163381   -4.008264   -0.700562
C       0.301664   -0.558674   -1.319528
O       1.035546   -0.152859   -2.172073
H       0.569838    1.734353   -0.516773
H       0.675344   -0.360178    0.933619
H      -2.290811   -0.396982    0.342418
H      -1.593454   -1.701051   -2.143101
H      -2.169522   -3.251460    1.192181
