16

C       0.059250    1.583594   -0.154121
O       1.513618    1.504046    0.127725
C       1.198607    0.321005    0.934625
C       1.341173   -1.262221    0.928946
C      -0.268396   -1.154384    1.118295
C      -0.023040    0.057441    0.111803
C       0.554920   -0.718214   -1.088649
C       1.422132   -1.577158   -0.556437
H      -0.440834    2.227629    0.578375
H      -0.127734    1.931715   -1.173890
H       1.016361    0.666856    1.960070
H       1.959423   -1.812664    1.638693
H      -0.837733   -2.008176    0.746244
H      -0.584606   -0.870523    2.125321
H       0.261628   -0.558559   -2.116978
H       2.049730   -2.323873   -1.020272
