22

C       0.715312    1.628780   -0.492197
C       0.079472    0.355258    0.085490
C       0.083845   -0.788161   -0.943220
C       0.872901   -0.086710    1.317694
O       2.074641   -0.307315    1.273637
N       0.177747   -0.229163    2.473191
C      -1.227258   -0.133958    2.883800
C      -0.792429   -0.599187    4.304459
C       0.667792   -0.690260    3.771946
H       1.771691    1.448458   -0.707656
H       0.211760    1.927295   -1.417062
H       0.653019    2.463733    0.213194
H      -0.956656    0.571094    0.371041
H       1.113681   -1.057473   -1.193545
H      -0.414051   -1.682597   -0.554389
H      -0.432013   -0.484659   -1.859527
H      -1.645652    0.877423    2.829105
H      -1.898266   -0.819915    2.354289
H      -0.945931    0.143026    5.088043
H      -1.223929   -1.548285    4.622855
H       1.104216   -1.693893    3.741818
H       1.391131   -0.011575    4.234944
