17

O       0.271666    0.444480    1.032054
C      -0.155881    0.369763   -0.319576
C      -1.495560   -0.351306   -0.399294
C      -2.021581   -1.053710   -1.702225
C      -0.949130   -2.176547   -1.476210
C      -1.506190   -1.900262   -0.043604
O      -1.050090   -2.490655    1.114263
C      -2.881022   -1.884941   -0.727425
O      -3.994428   -2.277030   -0.562758
H       0.293098   -0.457144    1.374487
H      -0.271827    1.404041   -0.659979
H       0.610935   -0.090617   -0.956887
H      -2.246926    0.235261    0.138145
H      -2.308865   -0.588876   -2.638847
H      -1.158720   -3.157962   -1.904337
H       0.084302   -1.882975   -1.646939
H      -1.787855   -2.574049    1.730228
