17

O      -0.227683    1.419430    0.119736
C      -0.030457    0.030817    0.043674
C       0.337970   -0.680105    1.402398
C      -1.115716   -1.100567    1.493651
O      -1.692072   -2.184417    2.195106
C      -2.934286   -1.436169    2.379131
C      -2.310301   -0.165234    1.758249
O      -2.567410    0.035959    0.353835
C      -1.405826   -0.738931    0.015713
H       0.630426    1.831934    0.261039
H       0.630244   -0.245689   -0.787702
H       1.004657   -1.533136    1.240996
H       0.740639   -0.050478    2.200935
H      -3.764144   -1.856854    1.802713
H      -3.197938   -1.374849    3.440440
H      -2.305198    0.760261    2.334760
H      -1.564754   -1.429213   -0.814597
