19

C       0.091005    1.471315   -0.019488
O      -0.210833    0.095464   -0.124049
C       0.553374   -0.579937   -1.096382
C       2.004727   -0.901082   -0.671836
O       2.326044   -2.115566   -1.331980
C       1.166418   -2.936131   -1.255042
C      -0.012918   -1.977417   -1.359731
C      -1.407347   -2.337227   -1.110137
O      -0.928070   -2.125294   -2.445215
H       1.117031    1.647772    0.335349
H      -0.035255    1.986010   -0.984145
H      -0.606302    1.898979    0.704545
H       0.545067   -0.020057   -2.043837
H       2.741188   -0.154186   -0.975230
H       2.033338   -1.011839    0.425501
H       1.185923   -3.655850   -2.076468
H       1.142797   -3.481601   -0.297575
H      -1.661107   -3.368235   -0.863674
H      -2.085768   -1.578638   -0.727923
