21

C      -0.055063    1.680150    0.342756
C       0.009273    0.189258    0.060528
C      -1.283959   -0.310447   -0.530548
C      -1.527130   -0.381867   -1.978140
O      -1.286839   -1.565424   -1.210265
C       1.244371   -0.531071   -0.417510
C       2.523892    0.045181    0.204006
C       1.946385   -0.246372    1.628938
C       0.675752   -0.809747    0.980537
H       0.848237    2.054360    0.827710
H      -0.193495    2.246757   -0.585136
H      -0.899821    1.914353    1.001683
H      -2.155886   -0.160142    0.110952
H      -2.538947   -0.278194   -2.367086
H      -0.729429   -0.106698   -2.666183
H       1.206538   -1.180167   -1.283112
H       3.401497   -0.567256   -0.013393
H       2.765774    1.085323   -0.037495
H       2.520841   -1.014751    2.150866
H       1.821234    0.604445    2.306764
H       0.139247   -1.689617    1.316951
