19

C       0.298551    1.603929    0.331264
C      -0.146746    0.239093   -0.158062
C      -1.553985    0.201238   -0.766081
C      -2.604041    0.446391    0.293915
O      -2.969804    1.536600    0.672363
C      -3.240017   -0.778874    0.970873
O      -2.981152   -1.919195    0.687210
C       0.891221   -0.665920   -0.778801
C       0.331812   -0.989684    0.585268
H       1.300500    1.551093    0.767448
H       0.329072    2.325275   -0.493788
H      -0.380638    2.004450    1.090357
H      -1.651217    0.981446   -1.528343
H      -1.733216   -0.775113   -1.223513
H      -3.980012   -0.494740    1.748666
H       0.597009   -1.293963   -1.612952
H       1.907988   -0.292494   -0.841169
H       0.971420   -0.840662    1.448721
H      -0.343527   -1.833769    0.667831
