19

O      -0.070269    1.524203    0.091673
C       0.041474    0.124206   -0.037028
C       0.545103   -0.608036    1.241863
C      -0.726744   -1.426689    1.552015
C      -0.498386   -2.823868    2.182837
C      -0.225007   -3.272540    0.661132
C      -1.162346   -2.062159    0.284440
C      -1.334681   -0.550725   -0.091439
O      -1.765006   -0.352123    1.342892
H      -0.696114    1.663228    0.815538
H       0.655251   -0.059586   -0.922120
H       1.439298   -1.214153    1.079840
H       0.756596    0.103511    2.044031
H       0.307386   -2.940170    2.912035
H      -1.412106   -3.290941    2.554928
H       0.825045   -3.174127    0.387413
H      -0.584756   -4.261790    0.374890
H      -2.183183   -2.425109    0.432624
H      -2.074067   -0.185525   -0.804618
