19

C      -0.170584    1.531162    0.015058
C       0.128508    0.026055    0.025381
C       0.817727   -0.472525   -1.223006
C       2.194107    0.040420   -1.630539
O       2.450713   -0.703801   -2.841743
C       1.295753   -1.486853   -2.970353
C       0.798246   -2.000023   -1.590232
O      -0.595763   -1.919589   -2.034727
C       0.019633   -0.697548   -2.559785
H       0.745248    2.129608   -0.029477
H      -0.789906    1.805428   -0.845492
H      -0.711647    1.824278    0.919466
H       0.745965   -0.219832    0.899481
H      -0.804788   -0.538041    0.130144
H       2.215294    1.114205   -1.849326
H       2.970617   -0.180372   -0.887228
H       1.316493   -2.127841   -3.848516
H       1.101038   -2.861544   -0.994272
H      -0.606664   -0.007816   -3.126019
