19

C      -0.058395    1.578429    0.048812
C       0.005712    0.043065   -0.020927
C       0.786800   -0.501037   -1.232143
C       2.239614   -0.731044   -0.720540
C       2.032900   -1.215922    0.725430
C       0.765004   -0.499578    1.202560
O       0.428765   -0.359358    2.348702
C       2.976519   -1.736792   -1.571059
O       3.966792   -1.516633   -2.216555
H       0.939712    2.025527   -0.012677
H      -0.656173    1.976202   -0.776349
H      -0.510669    1.891643    0.993230
H      -1.016769   -0.347084    0.013360
H       0.363772   -1.460124   -1.556475
H       0.765120    0.170510   -2.093697
H       2.805638    0.204607   -0.739924
H       1.824274   -2.296492    0.742224
H       2.873009   -1.038492    1.399345
H       2.506455   -2.751526   -1.562331
