17

C      -0.113190    1.534034    0.102407
C      -0.036481    0.043408    0.017144
C       0.076786   -0.715749   -1.076479
C       0.106879   -2.210842   -0.764549
C       1.231947   -2.922258   -1.362655
C       2.151839   -3.508319   -1.866516
C       0.097205   -2.225152    0.773685
O       1.204213   -1.575255    1.384734
C      -0.031434   -0.836334    1.233324
H       0.733355    1.939320    0.670153
H      -0.111226    1.992880   -0.889526
H      -1.023817    1.855441    0.623347
H       0.182008   -0.351256   -2.091694
H      -0.825136   -2.679946   -1.115447
H       2.971329   -4.023806   -2.302377
H      -0.300423   -3.086128    1.303077
H      -0.512310   -0.544509    2.162896
