17

O       0.046396    1.445935    0.024118
C       0.032295    0.052813    0.023517
C      -0.540091   -0.721848    1.236794
C      -1.035508   -0.005436    2.428217
O      -1.032566   -0.461495    3.548367
C      -1.289895   -0.581098   -0.090955
C      -2.639482    0.062565   -0.385443
C      -2.847300   -1.187585   -1.270068
O      -1.539213   -1.708748   -0.908557
H       0.783832    1.745819    0.567245
H       0.863687   -0.441027   -0.478985
H      -0.103877   -1.697104    1.428004
H      -1.427494    1.015128    2.227499
H      -3.321181    0.152159    0.460609
H      -2.578521    1.015808   -0.911054
H      -3.647109   -1.866472   -0.958389
H      -2.919147   -1.004259   -2.346781
