21

C       0.036864    1.512696    0.215260
O       0.595421    0.245121   -0.049826
C       0.721088   -0.560503    1.091477
C      -0.564509   -1.226077    1.690919
C       0.077506   -2.615925    1.462158
O      -0.325805   -3.207934    0.216068
C       0.791045   -2.604926   -0.483573
C       1.334402   -1.956283    0.808934
C       2.777331   -2.201522    1.185159
H       0.649919    2.082757    0.931071
H       0.000381    2.056663   -0.731514
H      -0.983307    1.436829    0.619572
H       1.292913   -0.025199    1.866525
H      -0.763199   -0.966431    2.733755
H      -1.471332   -1.087275    1.097957
H       0.093857   -3.333550    2.286928
H       1.450038   -3.370720   -0.912012
H       0.472213   -1.912624   -1.268521
H       3.451033   -1.645925    0.521616
H       2.984680   -1.878854    2.211413
H       3.034132   -3.263403    1.108667
