21

C      -0.185809    1.266801   -0.432130
O      -0.103072   -0.123837   -0.225501
C       0.640179   -0.799421   -1.226491
C       0.715152   -2.260459   -0.803418
O       1.271793   -2.356750    0.486742
C      -0.608527   -3.051258   -1.064721
C       0.018720   -3.621079   -2.356369
O      -0.451122   -2.876318   -3.471067
C       1.415662   -3.169408   -1.841395
H       0.809950    1.736969   -0.439873
H      -0.686052    1.505338   -1.382904
H      -0.770174    1.687128    0.390092
H       0.160222   -0.705201   -2.210084
H       1.659383   -0.381680   -1.288955
H       0.880110   -1.635948    0.997384
H      -0.746149   -3.819523   -0.301220
H      -1.529820   -2.480088   -1.192755
H      -0.105799   -4.696979   -2.529652
H       0.098138   -3.102211   -4.229006
H       2.085007   -2.696329   -2.567200
H       1.947377   -3.974639   -1.328376
