16

C       0.024793    1.495424   -0.209938
C      -0.053207   -0.002588    0.132625
C      -1.442229   -0.553577    0.039067
N      -2.140943   -0.866111    1.121983
N      -3.333521   -1.305282    0.659073
C      -3.426929   -1.288373   -0.681929
C      -2.212356   -0.802096   -1.140057
C      -1.822156   -0.602295   -2.484225
N      -1.481819   -0.429743   -3.578430
H       1.054554    1.853235   -0.120180
H      -0.309058    1.685011   -1.234216
H      -0.601706    2.083017    0.467683
H       0.601588   -0.563331   -0.544444
H       0.307570   -0.175723    1.150421
H      -4.030373   -1.606698    1.319590
H      -4.308804   -1.610848   -1.211424
