21

C      -0.149407    1.533310    0.182039
C      -0.035176    0.013829    0.064011
C       0.688055   -0.564484    1.292020
O      -1.368243   -0.490518   -0.001943
C       0.709063   -0.420202   -1.224382
O       0.609216   -1.839115   -1.255451
C       0.092196    0.190438   -2.505649
C       0.614137   -0.456047   -3.702998
C       1.071608   -1.047914   -4.645882
H       0.836370    2.006780    0.134336
H      -0.780569    1.946683   -0.607852
H      -0.606455    1.792489    1.140882
H       0.108152   -0.343729    2.192168
H       0.797969   -1.647300    1.199974
H       1.686758   -0.129236    1.406246
H      -1.277899   -1.421580   -0.245109
H       1.764387   -0.113939   -1.157379
H       0.855572   -2.130457   -2.142583
H      -0.995513    0.068523   -2.451104
H       0.301198    1.264536   -2.544602
H       1.461706   -1.537159   -5.504078
