21

C       0.075565    1.576696    0.036133
C      -0.032935    0.051739   -0.039598
C       0.718747   -0.543327   -1.234805
C       0.605397   -2.064795   -1.302915
N       1.322874   -2.595070   -2.450387
C       1.570342   -3.931389   -2.586503
N       1.309528   -4.791290   -1.675693
C       2.222481   -4.299622   -3.902201
O       2.529657   -5.427199   -4.183927
H       1.119608    1.895683    0.128356
H      -0.335942    2.049295   -0.862789
H      -0.470228    1.971379    0.898380
H       0.355795   -0.390901    0.886436
H      -1.089716   -0.239726   -0.094907
H       0.324713   -0.104119   -2.163566
H       1.778881   -0.263478   -1.185375
H       1.031498   -2.530892   -0.408879
H      -0.451687   -2.371159   -1.331175
H       1.331989   -2.032878   -3.287162
H       1.637043   -5.703926   -1.998182
H       2.405969   -3.456018   -4.607451
