22

C      -0.058765    1.516679   -0.191365
C       0.172707    0.007809   -0.081829
C       0.524220   -0.431261    1.341409
N       0.689658   -1.879988    1.390268
C       2.020558   -2.436111    1.231442
C       1.320939   -2.521072    2.560119
C       1.848707   -1.710100    3.736100
C       0.707171   -3.771568    2.949471
C       0.218590   -4.808473    3.312416
H       0.832661    2.081541    0.104180
H      -0.308176    1.804691   -1.216904
H      -0.883078    1.840489    0.453924
H      -0.718915   -0.540761   -0.404435
H       0.982626   -0.295550   -0.757243
H       1.419261    0.119077    1.677965
H      -0.293074   -0.162653    2.022264
H       2.105377   -3.315565    0.599338
H       2.864555   -1.746849    1.179120
H       2.382693   -0.815583    3.410499
H       1.029988   -1.407775    4.396616
H       2.539639   -2.322100    4.322812
H      -0.223604   -5.724738    3.616120
