13

O      -0.585575    1.138698    1.288246
C      -0.270999    1.733315    0.285314
C       1.153056    1.771984   -0.185339
C       2.181378    2.100282    0.887959
N       2.072832    0.761985    0.372707
C       1.392925    2.213805   -1.588154
O       0.561194    2.765231   -2.266906
C       2.747524    1.961712   -2.121808
N       3.803557    1.815399   -2.568349
H      -1.000522    2.269844   -0.345059
H       3.072817    2.647847    0.595519
H       1.765974    2.335458    1.864177
H       1.515619    0.191239    1.011535
