17

C      -0.005587    1.697883   -0.030643
C       0.028116    0.179023    0.020737
O       1.232903   -0.359915   -0.577337
C       1.550526   -1.109681    0.625926
C       0.327061   -0.552765    1.367994
C       0.594029    0.331784    2.556674
O       1.691686    0.620130    2.963084
C      -1.154780   -0.419405   -0.734503
O      -2.041440   -1.060172   -0.234922
H       0.882943    2.112308    0.452367
H      -0.013746    2.032016   -1.073276
H      -0.899680    2.091397    0.464496
H       1.545264   -2.188892    0.444781
H       2.508834   -0.799771    1.050689
H      -0.467173   -1.264101    1.610765
H      -0.320313    0.729803    3.050608
H      -1.106058   -0.230146   -1.829769
