19

O       0.009898    1.370599    0.025840
C       0.046623   -0.009725    0.000807
C       0.629458   -0.954771   -1.139158
C      -0.014534   -1.866663   -0.064649
C       0.674247   -0.983618    1.028240
C      -0.612270   -3.213317    0.223393
O      -1.682892   -2.899977    1.136599
C      -2.061159   -1.496991    1.082247
C      -1.225632   -0.896837   -0.041686
H       0.912364    1.700664    0.096821
H       0.132433   -0.906860   -2.110901
H       1.718126   -0.989411   -1.235114
H       1.766628   -1.030930    1.055692
H       0.251013   -1.000794    2.032194
H      -1.003998   -3.688947   -0.688042
H       0.054906   -3.918315    0.729252
H      -3.133089   -1.437604    0.866754
H      -1.890445   -1.052566    2.068974
H      -1.777158   -0.837628   -0.984454
