19

O       0.598048    0.692682   -0.886497
C       0.067413   -0.305177   -0.053259
C       0.120919   -0.106137    1.489112
C      -1.363784   -0.578706    1.593812
O      -1.525792   -1.903126    2.052269
C      -2.353017    0.445309    2.195815
C      -2.740200    1.284262    1.000846
C      -2.283069    0.785619   -0.151464
C      -1.484576   -0.473359    0.039196
H       0.146392    1.517378   -0.672281
H       0.548641   -1.236962   -0.359041
H       0.849401   -0.712478    2.033374
H       0.254984    0.944440    1.765056
H      -1.255455   -1.934213    2.976397
H      -3.225145   -0.069804    2.621086
H      -1.903426    1.037121    3.004091
H      -3.353673    2.174860    1.090745
H      -2.472842    1.213974   -1.130104
H      -1.899518   -1.336524   -0.489360
