20

C       0.027625    1.443378   -0.008364
O      -0.153342    0.055803   -0.165740
C       0.651674   -0.550228   -1.167883
C       2.105975   -0.716377   -0.713072
C       0.011252   -1.890424   -1.512323
C      -0.388508   -2.832669   -0.351423
O      -1.754626   -2.885414   -0.809630
C      -1.496925   -1.913627   -1.843197
H       1.022876    1.700662    0.381963
H      -0.119235    1.981751   -0.957898
H      -0.722914    1.784823    0.708840
H       0.631713    0.083997   -2.072484
H       2.157901   -1.349540    0.178367
H       2.703750   -1.181019   -1.503619
H       2.565726    0.246313   -0.473558
H       0.621049   -2.386194   -2.271906
H       0.079534   -3.824271   -0.342939
H      -0.309205   -2.381686    0.644471
H      -2.012335   -0.965537   -1.649909
H      -1.773945   -2.287120   -2.836536
