23

C       0.024302    1.535329    0.103001
C      -0.002276    0.020791   -0.023088
O       0.392329   -0.529335    1.223109
C       0.653226   -1.915653    1.239845
C      -0.580193   -2.757721    0.932060
C       1.956050   -2.364356    0.524827
O       2.520235   -2.836818    1.761259
C       1.405550   -2.329045    2.538446
C       1.818562   -1.238929    3.506583
H       1.032763    1.884249    0.342114
H      -0.294402    2.002023   -0.833912
H      -0.648639    1.863168    0.900461
H      -1.011755   -0.318923   -0.298482
H       0.681271   -0.309346   -0.821528
H      -0.924528   -2.615936   -0.097041
H      -0.352225   -3.819669    1.061105
H      -1.398337   -2.492972    1.609862
H       1.858773   -3.165656   -0.217947
H       2.537140   -1.538430    0.094314
H       0.914467   -3.150505    3.077971
H       2.262296   -0.392770    2.979104
H       0.952323   -0.876971    4.069573
H       2.549117   -1.641112    4.215384
