18

C       1.018705   -0.385820    0.199789
C      -0.205945    0.398275   -0.213542
O      -0.168301    1.548499   -0.569249
C      -1.568679   -0.351473   -0.169054
C      -1.697637   -1.186430   -1.367189
C      -1.775731   -1.889798   -2.340609
N      -1.714696   -1.036137    1.124723
C      -2.847097   -1.942678    1.295239
C      -1.458887   -2.472442    1.227644
H       1.911685    0.216696    0.031436
H       0.941246   -0.650260    1.258905
H       1.081637   -1.321323   -0.365314
H      -2.326195    0.438231   -0.202605
H      -1.856400   -2.492849   -3.211687
H      -3.367963   -1.859576    2.244471
H      -3.481087   -2.132686    0.431913
H      -1.187844   -3.015018    0.325561
H      -0.939988   -2.781252    2.130239
