21

C      -0.163329    1.527737    0.033349
C       0.059448    0.018362   -0.054710
C       0.990530   -0.515051   -1.167464
C       1.203701   -1.987004   -0.719616
C       1.993390   -1.325912    0.467891
C       2.962792   -2.057704    1.358843
C       2.410850   -0.242970   -0.594402
C       0.852995   -0.566239    1.137204
O       0.637012   -0.429361    2.313346
H       0.780108    2.082227    0.011193
H      -0.781151    1.882898   -0.797320
H      -0.671409    1.775291    0.969861
H      -0.916557   -0.482866   -0.098384
H       0.732743   -0.263120   -2.195877
H       0.322882   -2.591979   -0.482382
H       1.875891   -2.541618   -1.379262
H       3.749327   -2.549301    0.778015
H       3.435250   -1.366921    2.064583
H       2.445585   -2.819861    1.950861
H       3.205908   -0.616022   -1.244890
H       2.660051    0.761410   -0.241322
