12

O      -0.044157    0.045771    0.009255
C      -0.057343    1.233529    0.075207
C      -1.096707    2.306728    0.052985
C      -0.378511    3.534449    0.623121
O       0.896889    3.126501    1.131600
C       1.043577    2.350940   -0.091348
C       2.382367    2.110323   -0.545017
N       3.444684    1.889477   -0.942178
C      -0.103413    3.185214   -0.783100
H      -2.168491    2.223646   -0.051425
H      -0.891548    4.363917    1.089479
H      -0.220921    3.632956   -1.757700
