23

C      -0.242680    1.538408    0.020765
C       0.002211    0.025560   -0.002164
C       0.861948   -0.453331   -1.201330
C       1.696233   -1.640251   -0.667612
C       1.716817   -1.402913    0.833464
C       0.786149   -0.505535    1.176411
C       2.607400   -2.121903    1.764548
C       3.073119   -3.540750    1.488681
C       4.059688   -2.411827    1.423302
H       0.705585    2.085529    0.066886
H      -0.778242    1.865358   -0.877334
H      -0.841549    1.832099    0.889686
H      -0.982119   -0.469835   -0.032589
H       0.263802   -0.711038   -2.079862
H       1.536692    0.359064   -1.495824
H       1.215596   -2.603632   -0.890969
H       2.694529   -1.685432   -1.117821
H       0.572596   -0.202263    2.197226
H       2.422814   -1.892088    2.809973
H       3.120222   -4.226499    2.327278
H       2.766224   -4.000174    0.555816
H       4.424530   -2.108561    0.448457
H       4.787688   -2.310554    2.220501
