11

O      -0.034745   -0.019195   -0.268572
C       0.018691    1.180042   -0.214982
C       1.304098    1.954304   -0.049454
N       2.397537    1.266293    0.038732
O       3.580214    1.914558    0.188399
N       3.694887    3.294257    0.253880
C       2.616176    3.987572    0.167524
C       1.273030    3.422889    0.004682
O       0.261045    4.094425   -0.074983
H      -0.872095    1.829729   -0.282444
H       2.742976    5.065718    0.222100
