21

C       0.041148    1.284333   -0.323734
O      -0.067536    0.000226    0.267147
C      -1.339193   -0.574383    0.151683
C      -1.686104   -1.240028   -1.177890
C      -1.358794   -2.094518    0.025154
C      -0.023299   -2.814157    0.050968
C      -2.489529   -2.859715    0.685220
C      -2.373865    0.108607    0.889498
C      -3.215092    0.706849    1.508232
H       1.075770    1.605257   -0.184946
H      -0.187709    1.253813   -1.398456
H      -0.630243    2.006494    0.158105
H      -2.713095   -1.188236   -1.522609
H      -0.933522   -1.151576   -1.954648
H       0.770395   -2.208055   -0.386376
H       0.267335   -3.056323    1.079138
H      -0.095240   -3.755047   -0.506479
H      -2.654331   -3.809845    0.164337
H      -2.250376   -3.087433    1.729906
H      -3.425534   -2.297169    0.672173
H      -3.959532    1.226046    2.059511
