22

C      -0.002944    1.576944    0.030263
C      -0.020184    0.046342    0.041901
C      -1.429152   -0.527901   -0.114293
N      -1.437271   -1.979295   -0.079813
C      -0.905063   -2.704146   -1.257750
C      -2.119152   -3.636809   -1.152376
O      -2.426785   -4.693599   -1.615162
C      -2.756474   -2.662340   -0.148574
C      -3.321630   -3.206390    1.153293
H       1.015102    1.961934    0.139763
H      -0.409126    1.973564   -0.906800
H      -0.603076    1.986986    0.850173
H       0.615943   -0.334371   -0.767611
H       0.408705   -0.334046    0.975924
H      -2.060396   -0.169600    0.708801
H      -1.882845   -0.142426   -1.051477
H      -0.927364   -2.125611   -2.197729
H       0.088159   -3.148617   -1.139110
H      -3.516156   -2.054049   -0.674217
H      -2.575441   -3.815088    1.670606
H      -3.623326   -2.392208    1.819880
H      -4.201210   -3.825188    0.950651
