17

O      -0.047069   -0.023647   -0.177159
C      -0.081617    1.161405   -0.075990
C      -1.269846    2.203031    0.174859
C      -0.191508    2.970810    0.987482
C       0.817847    4.184337    0.923336
C       1.950087    3.082221    1.088788
C       0.926295    2.316674    0.163830
C       0.994535    3.259869   -1.070052
O       0.899621    4.551191   -0.441414
H      -1.628849    2.677163   -0.738087
H      -2.118119    1.800626    0.731112
H      -0.171418    2.568433    2.003699
H       0.743445    5.068584    1.555461
H       2.929786    3.344367    0.682812
H       2.030621    2.667190    2.092533
H       1.954788    3.150106   -1.586168
H       0.191727    3.136775   -1.802339
