12

N      -0.166558    1.416091   -0.042838
C      -0.043366    0.004367   -0.008879
C      -1.115285   -0.841918   -0.094735
O      -2.438033   -0.613164   -0.221001
N      -0.614352   -2.113723   -0.028029
C       0.751477   -1.986242    0.096569
N       1.121606   -0.731267    0.110889
H       0.364021    1.808299   -0.816212
H       0.214041    1.834134    0.802047
H      -2.525894    0.350555   -0.244492
H      -1.154737   -2.961407   -0.064623
H       1.398132   -2.847049    0.170249
