18

O       0.104884    0.026427   -0.282902
C      -0.048552    1.232784   -0.106165
C      -1.203037    2.017412    0.106854
H      -2.224244    1.786216   -0.149937
N      -0.822869    3.429263    0.099992
H      -1.141584    3.900172   -0.756182
C      -1.159685    4.343714    1.247030
C      -0.168440    5.505520    1.071776
C       1.128533    4.834717    0.522503
C       0.677802    3.466847    0.097939
C       1.118412    2.222710   -0.015562
H      -2.212908    4.625354    1.204529
H      -0.977776    3.754627    2.148061
H      -0.559362    6.234884    0.355104
H      -0.003042    6.035897    2.010793
H       1.558810    5.418412   -0.298161
H       1.899878    4.757917    1.293892
H       2.152634    1.905588   -0.003667
