18

N      -0.122386    1.279933    0.460494
C      -0.078380   -0.080597    0.146044
C      -1.120891   -0.916332   -0.198832
N      -0.492955   -2.125208   -0.498791
C       0.836616   -1.959491   -0.308311
N       1.125833   -0.735263    0.083994
C      -2.573645   -0.703373   -0.322069
C      -3.546930   -1.595998    0.424195
C      -3.360373   -0.168494    0.858834
H       0.672986    1.548015    1.025640
H      -0.988569    1.561707    0.899729
H      -0.962350   -2.967535   -0.784736
H       1.550369   -2.754950   -0.461729
H      -2.929014   -0.358259   -1.292470
H      -4.472154   -1.865724   -0.072569
H      -3.134279   -2.370565    1.061031
H      -2.821557    0.003768    1.783950
H      -4.157211    0.539201    0.659940
