18

C       0.016504    1.371506    0.015924
O      -0.055349   -0.041418   -0.073348
C      -1.332888   -0.543986   -0.039767
C      -2.396673   -0.531554    1.090227
N      -3.062457   -1.378499   -0.004328
C      -2.541535   -0.316891   -0.988576
C      -1.664169   -2.050326   -0.153729
C      -1.406663   -2.788139   -1.370407
C      -1.169066   -3.426022   -2.361483
H       1.073583    1.639615   -0.028257
H      -0.510383    1.856197   -0.817584
H      -0.406318    1.739808    0.961068
H      -2.186346   -1.086023    2.008287
H      -2.933281    0.398010    1.289158
H      -3.086309    0.626899   -0.917879
H      -2.466932   -0.672599   -2.016389
H      -1.418947   -2.652798    0.725829
H      -0.962468   -3.986299   -3.239787
