17

C      -0.018497    1.461169    0.067178
N      -0.031022    0.004268   -0.006611
C      -1.179967   -0.705176    0.086243
C      -1.183487   -2.068446    0.016287
C      -2.436299   -2.895316    0.114911
C       0.102637   -2.653620   -0.159027
N       1.231518   -2.007893   -0.252882
C       1.236468   -0.627061   -0.181917
O       2.228970    0.068361   -0.257661
H       0.608276    1.785357    0.900972
H       0.410416    1.875635   -0.847925
H      -1.039228    1.822937    0.201296
H      -2.088208   -0.125368    0.218588
H      -2.595021   -3.497925   -0.786607
H      -2.397381   -3.588710    0.962703
H      -3.317547   -2.261343    0.247382
H       0.169585   -3.742150   -0.222910
