21

C       0.077672    1.421398    0.009015
O       1.225320    0.549051   -0.007115
C      -0.066613   -0.030129    0.002618
C      -0.619466   -0.966821    1.077944
C      -1.697444   -1.348117    0.011738
C      -0.640859   -0.955222   -1.071535
C       0.371378   -2.095106   -1.302745
C       0.548162   -2.942209   -0.019214
C       0.397051   -2.109025    1.276647
H      -0.064519    1.981211    0.933052
H      -0.082821    1.991136   -0.905914
H      -0.949077   -0.532939    2.025017
H      -2.076380   -2.371987    0.009985
H      -2.539701   -0.652510    0.023875
H      -0.989208   -0.511182   -2.007124
H       0.043822   -2.737867   -2.127108
H       1.323897   -1.646221   -1.606544
H      -0.212867   -3.729578   -0.015889
H       1.512263   -3.459642   -0.031602
H       1.355476   -1.663342    1.566254
H       0.085899   -2.760680    2.100382
