22

C       3.134948   -1.180774    0.948216
N       1.757637   -1.256572    0.484427
C       0.825935   -2.006948    1.311004
C       0.722033   -0.517310    1.224260
C       1.065604    0.387859    2.379091
C       0.060656    1.258805    3.084415
C      -1.282401    0.536956    3.263187
C      -0.549394   -0.595287    4.052292
C       0.782971    0.138079    3.842486
H       3.248894   -1.166323    2.043847
H       3.679725   -2.048286    0.562261
H       3.608347   -0.280188    0.542463
H       0.122823   -2.647511    0.783863
H       1.200130   -2.415391    2.249116
H      -0.036818   -0.113298    0.555304
H       2.007157    0.917281    2.241625
H       0.202633    2.331030    3.154890
H      -1.980786    1.092646    3.892282
H      -1.802862    0.246404    2.345247
H      -0.847837   -0.615779    5.102736
H      -0.622236   -1.609778    3.651507
H       1.570380    0.216366    4.583638
