17

O      -0.191558    1.471964   -0.032767
C      -0.011497    0.077998    0.004299
C       0.305741   -0.603962    1.367410
C      -0.731601   -1.698568    0.995396
C      -1.638544   -2.227355    2.111917
C      -2.655893   -3.153529    1.615337
N      -3.449759   -3.883894    1.200680
C      -1.328799   -0.721114   -0.054176
H       0.673715    1.893293   -0.043939
H       0.690043   -0.256814   -0.772814
H       1.332358   -0.914367    1.576581
H      -0.057103    0.028060    2.184609
H      -0.243297   -2.543045    0.500663
H      -1.042994   -2.742720    2.875216
H      -2.142380   -1.392685    2.613684
H      -2.135910   -0.119963    0.376529
H      -1.654008   -1.121956   -1.015268
