14

N      -0.061762    1.333948   -0.046540
C       0.099627   -0.001074    0.066347
O       1.142180   -0.586342    0.227779
C      -1.279477   -0.785069   -0.002924
N      -2.285388    0.023033   -0.725041
C      -1.058947   -2.111930   -0.586449
C      -0.932007   -3.176805   -1.125449
C      -1.740060   -0.923849    1.393784
N      -2.115678   -1.016295    2.481918
H       0.743633    1.929276    0.051961
H      -0.984626    1.716376   -0.178167
H      -2.093056   -0.051107   -1.721161
H      -3.208109   -0.375939   -0.576388
H      -0.798658   -4.125304   -1.585572
