17

O      -0.316924    1.399273   -0.406391
C      -0.143030    0.035304   -0.107128
C      -1.483510   -0.700577    0.073676
C      -1.289275   -2.214899    0.229280
O      -2.552846   -2.879113    0.327538
C      -2.922024   -3.708433   -0.673217
O      -3.970707   -4.273783   -0.684522
C      -2.284092   -0.130448    1.234870
O      -2.017851    0.912294    1.786661
H      -0.744874    1.784066    0.370007
H       0.404059   -0.406173   -0.947737
H       0.471889   -0.110855    0.795772
H      -2.096145   -0.533844   -0.825607
H      -0.719005   -2.607220   -0.622426
H      -0.733328   -2.450765    1.142492
H      -2.145864   -3.799774   -1.458449
H      -3.155396   -0.734831    1.556361
