16

C      -0.065396   -1.182705    0.022701
C      -0.012728    0.016038    0.094092
C       0.086721    1.467452    0.168279
C       1.476591    1.984273   -0.243501
N       1.506062    3.438856   -0.176133
C       1.916313    4.017361    1.101486
C       2.825991    4.050171   -0.076399
H      -0.126556   -2.240889   -0.037004
H      -0.665558    1.934897   -0.477666
H      -0.132895    1.803684    1.189636
H       2.245829    1.515339    0.395067
H       1.684724    1.683167   -1.275707
H       1.380698    4.909448    1.412464
H       2.177960    3.335712    1.909955
H       3.692560    3.391079   -0.051449
H       2.966573    4.966359   -0.642601
