18

C      -0.363206    1.273928   -1.290728
C       0.235926   -0.038862   -0.830484
O       1.625260   -0.195621   -1.223900
C       2.045396   -0.562373    0.117210
C       3.243001    0.230589    0.597993
C       0.647387   -0.218923    0.630318
C       0.203675    0.453725    1.849088
O      -0.071018   -0.937837    1.604865
H       0.210782    2.121768   -0.905941
H      -0.364254    1.325976   -2.383847
H      -1.399524    1.361905   -0.947012
H      -0.366715   -0.887510   -1.185824
H       2.242776   -1.642481    0.180876
H       3.036109    1.304351    0.573800
H       3.505279   -0.057139    1.621839
H       4.108837    0.031833   -0.041102
H       0.914117    0.653977    2.649737
H      -0.664426    1.110677    1.822987
