20

C      -0.145074    1.594790    0.024546
C      -0.033311    0.102382   -0.073948
C       0.677203   -0.656980   -1.208357
C      -0.310478   -1.854098   -0.980257
O       0.218586   -3.043488   -0.426029
C       1.168355   -2.787792    0.598130
C       0.670430   -1.755174    1.631228
N      -0.210876   -0.692747    1.134423
C      -1.089330   -0.979796    0.020048
H       0.821580    2.043300    0.283807
H      -0.465223    2.027081   -0.929733
H      -0.863609    1.874490    0.798910
H       0.480622   -0.187712   -2.176617
H       1.752183   -0.830404   -1.123884
H      -0.862328   -2.151664   -1.873063
H       1.347509   -3.746466    1.093576
H       2.121799   -2.468454    0.154433
H       0.085808   -2.273234    2.400215
H       1.527578   -1.294710    2.134860
H      -2.165435   -0.923957    0.153707
