19

C      -0.311223    1.302593   -0.116487
O       0.123237   -0.053068    0.020744
C       0.703804   -0.579958   -1.130510
C       1.877341    0.121358   -1.607407
N       2.811292    0.684831   -1.993682
C       0.668769   -2.099222   -1.255391
C       0.132107   -2.945174   -0.123682
C      -0.221491   -1.246295   -2.145252
N      -1.636282   -1.072827   -1.953583
H       0.537808    1.969421   -0.309054
H      -1.043088    1.402961   -0.925910
H      -0.771393    1.571667    0.835957
H       1.542389   -2.512482   -1.751822
H      -0.726780   -2.482652    0.364396
H      -0.173707   -3.926909   -0.500480
H       0.898799   -3.102186    0.640715
H       0.077409   -1.164986   -3.186186
H      -2.141015   -1.884290   -2.297562
H      -1.848081   -0.983086   -0.965621
