18

C      -1.412341    0.311888   -2.021138
C      -0.797831    0.023395   -0.653785
O      -1.226224   -1.275039   -0.243600
C      -1.242504   -1.469201    1.165854
C      -2.281317   -0.695533    1.847508
C      -3.133216   -0.056028    2.403752
C       0.735452    0.141139   -0.734668
N       1.394532   -1.050151   -0.735080
O       1.281070    1.224156   -0.812727
H      -1.059733    1.280033   -2.383150
H      -1.123974   -0.460482   -2.740901
H      -2.502127    0.326636   -1.946098
H      -1.136029    0.779750    0.064189
H      -1.420759   -2.539575    1.313699
H      -0.260163   -1.237057    1.603908
H      -3.885972    0.506222    2.899355
H       0.870366   -1.906588   -0.797681
H       2.385715   -1.051138   -0.910976
