20

C       0.085085    1.566958   -0.255249
C      -0.080471    0.092811    0.029167
N       1.118090   -0.757110   -0.042819
C       0.429439   -0.592202    1.247002
C       1.191613    0.118533    2.329845
O       0.297787    0.859640    3.152715
C       0.748977    0.754226    4.499838
C       1.999394   -0.141806    4.404657
O       1.814166   -0.822595    3.175090
H       1.053824    1.932003    0.091642
H       0.023324    1.756551   -1.332206
H      -0.700632    2.146615    0.239662
H      -1.003059   -0.332005   -0.365806
H       0.904124   -1.665162   -0.444305
H      -0.158809   -1.421736    1.633941
H       1.949542    0.794077    1.898434
H       0.977659    1.746191    4.907023
H      -0.041915    0.299229    5.107982
H       2.919679    0.461306    4.383924
H       2.077493   -0.880803    5.204790
