18

N       0.030380   -1.172312    0.055382
C       0.007105   -0.016838    0.027639
C      -0.014788    1.442697    0.016574
C      -0.761948    1.989555    1.252889
O      -0.948065    3.383475    1.145079
C       0.199258    4.142551    0.880039
C       1.465769    4.018780    1.675614
C       1.416398    3.529465    0.232634
C       1.418401    2.029922   -0.050402
H      -0.579301    1.769233   -0.865282
H      -1.762238    1.556795    1.321802
H      -0.213383    1.717882    2.167440
H      -0.109728    5.133378    0.566544
H       2.015869    4.925308    1.901931
H       1.522951    3.260448    2.449735
H       1.930229    4.137718   -0.504045
H       2.053043    1.497438    0.665842
H       1.836351    1.833483   -1.040999
