25

C       0.109849    1.591666    0.003468
C      -0.022562    0.065611    0.015546
C      -1.487979   -0.383955    0.091380
C      -2.381595    0.081311   -1.041960
C      -2.485502   -0.703882   -2.327923
C      -3.648820   -0.668755   -1.367621
C       0.871946   -0.602653   -1.081753
C       1.972509   -0.842086   -0.014634
C       0.916824   -0.574152    1.090674
H       1.161065    1.898079    0.023458
H      -0.339730    2.028988   -0.893886
H      -0.380371    2.035122    0.878429
H      -1.516684   -1.481412    0.133605
H      -1.907953   -0.034089    1.046527
H      -2.450510    1.159930   -1.151207
H      -2.570529   -0.161532   -3.263289
H      -1.925936   -1.629966   -2.405212
H      -3.863525   -1.569327   -0.800923
H      -4.530023   -0.100339   -1.644311
H       0.441689   -1.541487   -1.441415
H       1.132975    0.009451   -1.949520
H       2.457039   -1.821191   -0.011081
H       2.754178   -0.078360   -0.040172
H       1.212186    0.062762    1.929687
H       0.498597   -1.502106    1.493398
