16

C       3.076598   -0.156491   -0.055403
C       1.592351   -0.521997   -0.116962
C       0.676329    0.689075    0.153523
C      -0.744493    0.362144    0.099524
C      -1.910305    0.064414    0.048887
C      -3.323135   -0.283905   -0.009796
H       3.707677   -1.028926   -0.249927
H       3.328823    0.608870   -0.798051
H       3.348528    0.237767    0.930261
H       1.346472   -0.938115   -1.100400
H       1.366020   -1.306255    0.614115
H       0.920976    1.112449    1.137546
H       0.901450    1.480184   -0.575083
H      -3.844711    0.289055   -0.784769
H      -3.463118   -1.346905   -0.236418
H      -3.825021   -0.081928    0.943213
