21

C       0.185475    1.509784   -0.125513
C      -0.010755   -0.004778   -0.003568
O      -1.406638   -0.304102    0.053205
C       0.558297   -0.798652   -1.209377
C       1.990820   -1.218876   -0.852273
C       3.086439   -0.142002   -0.957284
O       3.022242    0.132513    0.460264
C       2.129204   -0.992111    0.680272
C       0.760825   -0.592987    1.210275
H       1.244967    1.774854   -0.124935
H      -0.288492    1.888492   -1.036090
H      -0.270622    2.018240    0.734058
H      -1.810981    0.293319    0.690938
H      -0.071106   -1.685226   -1.332858
H       0.500762   -0.228021   -2.141685
H       2.258843   -2.197281   -1.251954
H       4.074787   -0.521280   -1.247918
H       2.853488    0.743269   -1.562142
H       2.623265   -1.769704    1.273342
H       0.833095    0.099702    2.055163
H       0.229408   -1.490234    1.547910
