22

C       0.018192    1.502962   -0.299250
C      -0.045185    0.091063    0.294831
C      -1.432152   -0.515736    0.228743
C      -1.907527   -1.209325   -1.032404
C      -1.630529   -2.005000    0.208027
C      -0.629178   -3.159350    0.352727
N      -1.659103   -4.018516    1.047514
C      -2.042665   -3.280275    2.264883
C      -2.622323   -2.841793    0.978497
H       1.029882    1.915980   -0.236872
H      -0.282054    1.499517   -1.352167
H      -0.653878    2.184720    0.233459
H       0.660360   -0.561639   -0.235214
H       0.293463    0.118060    1.339164
H      -2.193488    0.047971    0.766065
H      -2.940234   -1.079253   -1.341206
H      -1.205442   -1.299762   -1.857312
H      -0.339589   -3.619232   -0.595356
H       0.268168   -2.982852    0.957152
H      -2.668611   -3.866244    2.931410
H      -1.302295   -2.656812    2.763266
H      -3.669983   -2.976829    0.725187
