16

C      -0.107532    1.589184    0.103184
C       0.023091    0.067719   -0.051201
C       0.903877   -0.507920    1.051765
O       1.446396   -1.582731    1.003753
C      -1.349958   -0.607474   -0.080643
C      -1.534800   -2.062060    0.122154
N      -2.026342   -1.103676    1.132784
H       0.872446    2.077051    0.093775
H      -0.699694    2.011237   -0.713273
H      -0.606268    1.847831    1.043550
H       0.522524   -0.169149   -0.999802
H       1.019858    0.144365    1.949299
H      -2.036430   -0.103737   -0.759855
H      -2.314096   -2.586711   -0.423262
H      -0.653833   -2.652879    0.353581
H      -1.392626   -1.096373    1.929279
