16

C       0.038487    1.433874    0.091865
N       0.000401   -0.021443    0.062417
C       1.292631   -0.674949    0.145609
C      -1.214567   -0.642199   -0.038041
O      -2.267977   -0.041128   -0.104410
C      -1.191020   -2.186835   -0.064581
C      -2.534564   -2.745092   -0.173381
N      -3.571056   -3.245456   -0.258572
H       0.628256    1.818176   -0.749250
H      -0.981276    1.807095    0.023663
H       0.497787    1.785732    1.023660
H       1.804034   -0.399849    1.077197
H       1.202561   -1.758857    0.119195
H       1.934140   -0.367600   -0.690494
H      -0.592842   -2.547591   -0.908905
H      -0.721463   -2.579819    0.844212
