21

O      -0.661859    0.953461    1.033675
C      -0.057475    1.137942    0.008895
C       1.266102    1.856365   -0.105089
C       1.186988    3.056534   -1.070316
C       2.534249    3.752446   -1.221591
C       3.694875    3.153616   -2.087628
C       2.923641    3.607016   -3.362409
C       2.809477    4.791834   -2.357359
C       4.323242    4.577236   -2.066527
H      -0.465315    0.778255   -0.966431
H       1.584859    2.163684    0.895342
H       2.002088    1.136564   -0.491910
H       0.795860    2.717207   -2.035300
H       0.458631    3.779599   -0.680972
H       2.872031    4.096362   -0.235692
H       4.215546    2.206619   -1.932957
H       3.532567    3.789329   -4.252099
H       2.011063    3.071264   -3.627409
H       2.297771    5.743267   -2.513166
H       4.696380    4.937431   -1.103677
H       5.012978    4.814999   -2.880365
