23

C       0.156624    1.613082    0.126946
C      -0.022415    0.106953   -0.086989
C       0.766380   -0.470384   -1.275673
C       2.284250   -0.338636   -1.102289
C       0.362073   -1.950483   -1.495867
C       0.935188   -2.551346   -2.694612
C       1.418449   -3.020802   -3.692800
C       1.980667   -3.601189   -4.904896
O       3.398886   -3.668031   -4.792569
H       1.188067    1.869967    0.385554
H      -0.109374    2.174348   -0.775966
H      -0.483727    1.970027    0.939673
H       0.265725   -0.430254    0.827671
H      -1.089327   -0.104375   -0.238129
H       0.473847    0.082070   -2.179348
H       2.812164   -0.801304   -1.940601
H       2.595276    0.708133   -1.046433
H       2.615111   -0.835700   -0.181701
H       0.657143   -2.537190   -0.614278
H      -0.732375   -2.019844   -1.551054
H       1.547817   -4.603387   -5.059707
H       1.681190   -2.990075   -5.772348
H       3.731701   -4.053467   -5.609580
