21

C      -0.110623    1.571805    0.081306
C       0.040492    0.052441    0.022740
C      -1.312022   -0.620757   -0.216091
C       1.142580   -0.508350   -0.949652
C       1.809791   -1.231190    0.219766
C       2.213443   -0.248886    1.298862
C       0.775680   -0.609371    1.211599
C       2.259530   -2.623671    0.223001
O       2.280863   -3.344280   -0.748458
H       0.843964    2.072710    0.267633
H      -0.506059    1.955717   -0.865920
H      -0.804480    1.867537    0.876292
H      -1.749667   -0.288637   -1.163630
H      -1.211845   -1.710370   -0.254386
H      -2.019050   -0.375264    0.585023
H       0.747229   -1.198470   -1.696643
H       1.766619    0.238157   -1.450541
H       2.749850   -0.678975    2.139983
H       2.577373    0.728776    0.994670
H       0.276536   -1.126774    2.024178
H       2.575789   -2.997130    1.226178
