20

C       0.389996    0.016918   -0.813384
C      -0.559054   -0.296414    0.355499
O       0.070051   -0.066328    1.589558
C      -1.833940    0.540478    0.270149
O      -2.099309    1.319252    1.162338
C      -2.737457    0.424222   -0.951678
N      -2.712552   -0.902469   -1.548370
C      -3.735650   -1.840203   -1.086222
C      -3.821802   -1.226276   -2.439383
H       1.317359   -0.542569   -0.668738
H      -0.054897   -0.277534   -1.766841
H       0.637617    1.082987   -0.834500
H      -0.858238   -1.352858    0.277393
H      -0.456350    0.626487    2.019906
H      -3.742318    0.763819   -0.652239
H      -2.363440    1.142390   -1.695023
H      -3.411410   -2.869399   -0.966497
H      -4.442570   -1.491626   -0.335331
H      -4.588647   -0.469092   -2.593357
H      -3.562026   -1.799824   -3.324074
