19

C      -0.001038    1.535197    0.063705
C       0.042316    0.043332    0.008438
C      -0.049321   -0.744347   -1.060523
C       0.024440   -2.212169   -0.680098
C       1.017556   -3.026590   -1.527316
N       0.459276   -2.140629    0.728465
C       0.182059   -0.797239    1.254966
C      -1.328394   -2.820957   -0.802090
N      -2.377190   -3.306168   -0.859461
H       0.917894    1.939897    0.505155
H      -0.125747    1.971738   -0.930091
H      -0.829950    1.879626    0.694508
H      -0.184048   -0.430547   -2.087829
H       2.004964   -2.567577   -1.443943
H       1.076203   -4.056356   -1.164155
H       0.711773   -3.049483   -2.577600
H       0.058926   -2.879611    1.291921
H       1.006149   -0.455282    1.896591
H      -0.738517   -0.736333    1.861102
