16

C      -0.438823    1.368409   -0.513511
C      -0.242077   -0.058158   -0.298128
C      -0.081073   -1.234772   -0.098244
C       0.129085   -2.666802    0.126357
C      -1.125782   -3.364457    0.422326
C      -2.150577   -3.945696    0.653127
C       0.841368   -3.398655   -1.063270
N       0.571574   -2.879773   -2.284997
O       1.535258   -4.369134   -0.861998
H       0.313940    1.776553   -1.196636
H      -1.426018    1.573072   -0.941467
H      -0.364692    1.920490    0.429543
H       0.817156   -2.811356    0.968143
H      -3.055290   -4.460714    0.862557
H       0.079600   -2.007315   -2.378142
H       1.011937   -3.294741   -3.089168
