17

C       0.054486    1.598476    0.094765
C       0.019668    0.069384    0.042255
C      -1.405366   -0.517873   -0.031444
C      -2.143823   -0.286813   -1.329678
C      -2.560341   -1.408059   -1.941233
C      -2.180157   -2.600231   -1.163233
O      -2.391922   -3.766114   -1.387918
C      -1.406514   -2.046858    0.071272
O      -0.886507   -2.713252    0.923303
H       1.084163    1.958639    0.176169
H      -0.379303    2.049713   -0.803812
H      -0.500758    1.977496    0.959714
H       0.599298   -0.290725   -0.816371
H       0.493776   -0.350027    0.935924
H      -1.982919   -0.111475    0.812159
H      -2.310788    0.713860   -1.715316
H      -3.104864   -1.465533   -2.875029
