21

C       0.000384    1.397973   -0.060014
O       0.122317   -0.002715   -0.063333
C       0.562226   -0.521629    1.174673
C       0.672844   -2.028677    1.051274
C       1.801509   -2.654103    0.161761
C       2.252763   -3.505359    1.355788
C       2.675173   -2.597517    2.489023
C       1.209715   -2.837553    2.241264
O       0.393331   -3.441351    3.184035
H       0.961836    1.893380    0.151993
H      -0.340281    1.701240   -1.053221
H      -0.732085    1.744204    0.687219
H       1.534407   -0.076424    1.448596
H      -0.150336   -0.256537    1.977032
H      -0.299356   -2.430671    0.752082
H       1.406599   -3.231202   -0.675827
H       2.546454   -1.948000   -0.219285
H       2.551904   -4.545307    1.322604
H       3.053832   -3.118109    3.363328
H       3.156326   -1.642489    2.288416
H       0.351748   -2.873841    3.960980
