13

O      -0.102078   -0.090413    0.003330
C      -0.028978    1.117795    0.007519
C       1.204703    1.856643   -0.000070
C       2.229236    2.509181   -0.006152
C       3.374659    3.232388   -0.013005
C       4.398793    3.877198   -0.019143
C       5.640421    4.645113   -0.026823
C       5.433905    6.093936   -0.016989
C       5.275104    7.283189   -0.009056
H      -0.935998    1.755163    0.017916
H       6.247782    4.350854    0.840943
H       6.231052    4.360350   -0.909184
H       5.131398    8.335571   -0.002200
