12

F       0.024507    0.020304    0.004035
C      -0.022718    1.350852    0.011032
C      -1.239370    2.016530    0.030384
C      -1.250286    3.408972    0.037190
C      -0.059805    4.131234    0.024839
C       1.145776    3.445707    0.005545
F       2.302671    4.104556   -0.006677
C       1.178649    2.054029   -0.001561
F       2.338800    1.406858   -0.020072
H      -2.152962    1.435152    0.039737
H      -2.196427    3.936761    0.052283
H      -0.045118    5.214054    0.029828
