19

C      -0.232150    1.374950    0.146632
N      -0.208099   -0.075280    0.219648
C       0.667549   -0.645366    0.914140
O       1.642812   -0.003013    1.654509
C       2.525954   -0.957658    2.247372
C       1.899144   -2.307672    1.947051
C       0.510698   -2.574116    2.399535
C      -0.218108   -1.761765    3.442915
N       0.777823   -2.060335    1.020904
H       0.676656    1.861212    0.519856
H      -0.392519    1.673839   -0.894553
H      -1.086273    1.756665    0.719995
H       3.515930   -0.874118    1.785046
H       2.618779   -0.732071    3.315224
H       2.564333   -3.128248    1.696178
H       0.193687   -3.613760    2.356200
H       0.145388   -0.734524    3.512530
H      -1.287745   -1.725541    3.214261
H      -0.100468   -2.234722    4.423476
