17

C      -0.295114    1.484198   -0.112162
C       0.095782    0.023410   -0.072927
O       1.326672   -0.244770   -0.781906
C       1.969584   -0.775997    0.386006
C       0.695133   -0.566431    1.254156
C       0.805247    0.291364    2.408506
C       0.903849    1.009295    3.379378
C       1.017568    1.818074    4.467006
C       1.118131    2.535930    5.433063
H       0.488466    2.114516    0.316067
H      -0.461582    1.789800   -1.149689
H      -1.220104    1.649713    0.449803
H      -0.716378   -0.601699   -0.466714
H       2.270826   -1.822317    0.258458
H       2.837045   -0.181246    0.692089
H       0.218492   -1.509643    1.535285
H       1.207566    3.167790    6.281521
