13

C       0.009586    1.501754    0.013664
C      -0.008277    0.047321    0.012549
C      -0.025063   -1.154067    0.004441
C      -0.040388   -2.622371    0.009516
C      -1.397866   -3.175415   -0.103344
C      -2.504098   -3.632125   -0.175383
C       0.833723   -3.164113   -1.056259
N       1.529334   -3.591305   -1.872201
H       0.620869    1.885272   -0.809879
H      -1.001259    1.906501   -0.102046
H       0.423393    1.891826    0.949377
H       0.389143   -2.973047    0.960990
H      -3.485253   -4.033238   -0.247188
