18

O      -0.112773    1.412217   -0.206334
C       0.037671    0.015318    0.035856
C      -1.378238   -0.554375    0.036865
O      -2.038184   -0.215131   -1.167482
C      -1.382784   -2.081960    0.167167
O      -0.735693   -2.498178    1.354646
C      -2.822751   -2.625340    0.057098
C      -2.878648   -4.082893    0.109739
N      -2.925950   -5.236622    0.146100
H       0.747438    1.784222   -0.418934
H       0.618911   -0.464885   -0.764983
H       0.530630   -0.184696    0.994606
H      -1.916868   -0.126911    0.904192
H      -1.786423    0.699080   -1.353320
H      -0.789233   -2.505018   -0.650277
H      -1.261215   -2.208416    2.109555
H      -3.434944   -2.216143    0.871841
H      -3.264888   -2.271153   -0.878413
