23

C      -0.389909    1.528396   -0.143909
C      -0.003213    0.059244   -0.024608
C       0.956490   -0.612145   -1.040498
C       2.346328    0.065357   -1.156574
C       2.798180   -0.595245    0.171420
C       2.236270    0.079792    1.449075
C       2.479980    1.554728    1.744613
C       0.830419   -0.524741    1.155306
C       1.516330   -1.502964    0.126602
H       0.475497    2.181320   -0.278195
H      -1.051262    1.681406   -1.004697
H      -0.926968    1.869606    0.748407
H      -0.925988   -0.536424   -0.039494
H       0.516151   -0.999474   -1.961124
H       2.904678   -0.353510   -1.999228
H       2.388260    1.157174   -1.235521
H       3.822779   -0.969132    0.214789
H       2.622588   -0.503863    2.295633
H       2.252577    2.197631    0.891247
H       1.868628    1.895244    2.588047
H       3.530143    1.723448    2.010036
H       0.258540   -0.845231    2.028829
H       1.495464   -2.589298    0.173461
