17

C      -0.046141   -1.228354    0.113671
C      -0.057209   -0.027089    0.076525
C      -0.029630    1.430290    0.019230
N      -0.677400    2.046616    1.208806
C       0.140301    2.909841    1.671190
N       1.336838    3.152825    0.989779
C       2.605084    2.676643    1.639624
C       2.584345    1.406244    0.744672
C       1.403732    2.052195   -0.022708
H      -0.057596   -2.289783    0.147240
H      -0.584952    1.750985   -0.871725
H      -0.069277    3.486220    2.569367
H       3.432769    3.360911    1.437060
H       2.523617    2.521995    2.719045
H       3.486384    1.209617    0.163138
H       2.297511    0.497986    1.278008
H       1.660356    2.412184   -1.020756
