15

N      -0.068163    1.327925   -0.037175
C       0.082138   -0.021692   -0.030451
O       1.127551   -0.633061   -0.050109
N      -1.156488   -0.694934   -0.011143
C      -1.456239   -2.134451    0.039116
C      -2.965021   -1.751964    0.034916
O      -3.649198   -2.195062    1.174395
C      -2.471582   -0.280617    0.056326
O      -2.965583    0.817787    0.129504
H       0.763364    1.889579    0.015650
H      -0.983282    1.744733    0.060129
H      -1.091513   -2.690959   -0.825390
H      -1.139477   -2.611110    0.968320
H      -3.481301   -2.010146   -0.899651
H      -4.478038   -1.706890    1.233795
