11

C      -0.025573    1.501756   -0.010456
C       0.001563    0.008321    0.026857
N      -0.077654   -0.729430   -1.084735
N      -0.020316   -1.976817   -0.633035
N       0.089464   -2.130192    0.678112
C       0.105473   -0.873553    1.121735
H       0.888019    1.928434    0.416639
H      -0.116280    1.846808   -1.042169
H      -0.869970    1.900097    0.561750
H      -0.058587   -2.766305   -1.256655
H       0.188369   -0.660655    2.175919
