17

C       0.382928    1.604210   -0.618037
C       0.018743    0.214658   -0.151092
N       1.094167   -0.754162    0.057037
C       0.356814   -0.316450    1.234128
C       1.091510    0.532512    2.244887
N       0.583145    0.428342    3.509828
O       2.019322    1.266252    1.970258
C      -1.262463   -0.357811   -0.682265
O      -1.518945   -1.539097   -0.672792
H       1.279684    1.948843   -0.105245
H       0.569914    1.601201   -1.697245
H      -0.433987    2.306159   -0.416993
H       0.743040   -1.674033   -0.214886
H      -0.376023   -1.010265    1.642154
H      -0.083664   -0.279492    3.763572
H       1.067622    0.913892    4.247454
H      -1.974717    0.383616   -1.102078
