16

O       0.679516    0.802944    0.579287
C       0.112515   -0.328778   -0.005548
C      -1.449753   -0.402810   -0.188043
N      -2.045556   -1.722497    0.008321
C      -1.690262   -2.184454   -1.356162
C      -1.257469   -0.765056   -1.775061
O      -1.888375   -0.257240   -2.881347
C       0.155695   -0.292575   -1.538028
O       0.785618    0.478308   -2.226409
H       1.080104    1.315526   -0.137257
H       0.492095   -1.242891    0.468059
H      -1.993493    0.471266    0.172297
H      -1.641626   -2.261089    0.768199
H      -0.905151   -2.946376   -1.425202
H      -2.561130   -2.520735   -1.927263
H      -1.331619    0.455157   -3.227605
