16

O      -0.043548    1.416100   -0.098746
C       0.042677    0.045328   -0.041505
C      -0.018323   -0.856279    1.146215
O       1.084452   -1.726974    1.232061
C       1.416876   -2.049969   -0.115961
C       0.337095   -2.977597   -0.702092
N      -0.461089   -1.773976   -1.141565
C      -1.036210   -1.032422    0.009605
C       0.777784   -0.904588   -1.001324
H       0.601463    1.790925    0.511393
H      -0.376312   -0.506422    2.106990
H       2.475199   -2.312857   -0.167337
H       0.662410   -3.532782   -1.587121
H      -0.158205   -3.650572    0.001923
H      -2.107834   -0.979568    0.170026
H       1.264366   -0.552837   -1.909548
