21

C      -0.097872    1.486475   -0.117472
C       1.270008    0.855075   -0.023003
C       0.028086   -0.003411   -0.002365
C      -0.388421   -0.960484    1.151422
C      -0.327390   -2.141953    0.113063
C      -1.472918   -3.081894   -0.304644
C      -1.562780   -2.856134   -1.851991
C      -1.068624   -1.418949   -2.025145
C      -0.348195   -1.082933   -0.959419
H      -0.470366    2.028106    0.746310
H      -0.410208    1.898211   -1.071577
H       1.889006    0.832903   -0.913301
H       1.820490    0.964221    0.906071
H       0.283398   -1.018978    2.012160
H      -1.408642   -0.765784    1.496257
H       0.633816   -2.664563    0.191808
H      -1.314520   -4.130524   -0.035627
H      -2.412834   -2.758088    0.157470
H      -0.937692   -3.578938   -2.396635
H      -2.582713   -2.987492   -2.229962
H      -1.360540   -0.787788   -2.856394
