14

O       0.013345   -0.113018    0.145268
C       0.019975    1.068296   -0.071909
C       1.301824    1.877694   -0.220671
C       1.223943    2.887597   -1.314119
N       0.294281    3.014138   -2.170209
C       0.686672    4.130965   -3.020910
C       2.025030    4.607660   -2.468522
O       2.761453    5.480483   -2.794825
O       2.289510    3.762168   -1.386232
H      -0.914497    1.658777   -0.150598
H       1.494050    2.402304    0.726447
H       2.145909    1.198904   -0.378894
H       0.790087    3.822432   -4.066640
H      -0.051933    4.939139   -2.994483
