20

C       1.628962    0.953968   -0.984150
N       0.839738   -0.108911   -0.379274
C       1.502925   -1.254910    0.220778
C       0.728387   -0.294218    1.060446
C       1.385764    0.571036    2.165887
C       1.034825   -0.068266    3.529141
N       2.839424    0.762956    2.133890
C       0.768438    1.915364    2.107473
N       0.266800    2.954303    2.042865
H       2.669736    1.018783   -0.631322
H       1.664953    0.780947   -2.064333
H       1.140463    1.916412   -0.810243
H       1.098300   -2.236036   -0.016805
H       2.589674   -1.222791    0.299287
H      -0.280963   -0.583060    1.352300
H       1.458135   -1.076882    3.571075
H       1.462690    0.528926    4.335727
H      -0.045772   -0.141478    3.667672
H       3.304920   -0.138379    2.156063
H       3.137301    1.250300    1.297611
