19

C       0.013744    1.319776   -0.015646
O       0.097192   -0.088910   -0.029784
C       0.638314   -0.630355    1.148585
C       0.675958   -2.164838    0.980690
N       1.346887   -2.598443   -0.241841
C       1.359239   -2.792639    2.224493
O       1.454041   -4.190702    2.174225
C      -0.716175   -2.674365    0.945276
N      -1.785723   -3.110675    0.982801
H       1.005526    1.782934    0.100868
H      -0.413238    1.627200   -0.972378
H      -0.634967    1.677516    0.797378
H       1.668421   -0.268632    1.311025
H       0.035442   -0.347855    2.026558
H       1.121485   -1.946834   -0.987343
H       2.352245   -2.590483   -0.104301
H       2.387722   -2.416083    2.269724
H       0.832550   -2.440603    3.124732
H       0.563714   -4.553175    2.091802
