23

C      -0.050943    1.493859   -0.073302
C      -0.059859   -0.035287    0.018149
C       0.742400   -0.583460    1.200797
C       0.197731   -0.196513    2.609423
C       0.283492   -1.469588    3.479202
O      -1.047269   -2.021780    3.537182
C       1.227275   -2.402878    2.702167
C       0.845571   -2.131903    1.236786
O      -0.362608   -2.786457    0.878514
H       0.969643    1.880641   -0.176453
H      -0.625534    1.840589   -0.938002
H      -0.488574    1.954871    0.818801
H      -1.089122   -0.403673    0.086729
H       0.346075   -0.457480   -0.909831
H       1.771553   -0.206059    1.119407
H       0.774525    0.617796    3.054915
H      -0.845666    0.130556    2.574165
H       0.629691   -1.259314    4.498581
H      -1.002739   -2.845308    4.035564
H       2.268364   -2.109455    2.883599
H       1.118444   -3.456016    2.981331
H       1.598616   -2.495212    0.530520
H      -0.987409   -2.623711    1.600163
