19

O       0.301607    1.213579   -0.469034
C       0.049242   -0.109955   -0.020522
C       0.781112   -0.411566    1.320122
C      -0.091788   -0.301941    2.555976
O       0.164047    0.422366    3.489922
C      -1.326565   -1.194885    2.518220
C      -2.129593   -0.969837    1.245504
C      -2.391376    0.449816    0.816815
C      -1.443843   -0.420418    0.013578
H      -0.292657    1.804457    0.006239
H       0.511622   -0.739132   -0.787502
H       1.141999   -1.448351    1.282359
H       1.643955    0.249706    1.413508
H      -0.985343   -2.238686    2.558079
H      -1.928418   -1.002775    3.410620
H      -2.925056   -1.689576    1.078372
H      -3.346063    0.704322    0.371491
H      -1.980508    1.234976    1.447569
H      -1.840383   -0.753519   -0.940170
