20

C       0.015301    1.532299   -0.094088
N       1.256746    0.749272   -0.167188
C      -0.027015    0.054507    0.058418
C      -0.201970   -0.535732    1.449500
O      -0.118441   -1.950084    1.490154
C       0.971127   -2.519393    0.778173
C       0.579715   -2.861285   -0.660620
O       0.424095   -1.746004   -1.519927
C      -0.540068   -0.793707   -1.095592
H      -0.072754    2.167806    0.783840
H      -0.395258    1.964661   -1.003289
H       1.543428    0.616168   -1.134996
H       0.543687   -0.074048    2.113717
H      -1.200553   -0.302261    1.836129
H       1.849867   -1.861169    0.794947
H       1.229650   -3.451621    1.294875
H       1.361007   -3.478645   -1.117351
H      -0.351962   -3.449154   -0.627632
H      -1.482791   -1.289739   -0.819777
H      -0.726217   -0.162265   -1.970531
