19

C      -0.884824    0.517646   -0.491083
C      -0.367878   -0.726803    0.240830
C       0.810022   -0.423699    1.142765
C       1.959892   -1.350798    1.220014
O       2.062003   -0.130467    0.495088
C       0.511753    0.422868    2.364862
O      -0.563026    0.363641    2.909642
C       1.622955    1.359280    2.824024
O       1.239109    1.968092    4.028846
H      -0.092975    0.969207   -1.096570
H      -1.713100    0.257163   -1.155854
H      -1.249375    1.267546    0.217090
H      -1.160815   -1.153884    0.862490
H      -0.064319   -1.489420   -0.483624
H       2.559746   -1.414203    2.126792
H       1.931773   -2.257377    0.617314
H       2.563403    0.792243    2.910355
H       1.784862    2.080796    2.005217
H       1.924269    2.596995    4.272571
