17

C      -0.073137    1.432305   -0.041030
O       1.251324    1.951732    0.243109
C       1.809340    0.895438    0.911744
N       2.206449    0.953837    2.107677
C       2.076748   -0.350374    2.766147
C       0.616263   -0.819763    2.469939
C       0.512271   -1.032640    0.961964
C       0.128898   -0.089175   -0.161073
N       1.544058   -0.302594    0.177635
H      -0.759181    1.727548    0.761658
H      -0.410753    1.862217   -0.985359
H       2.787826   -1.103198    2.400910
H       2.243155   -0.219677    3.837881
H       0.381021   -1.756558    2.983062
H      -0.068362   -0.053865    2.845595
H       0.457021   -2.079639    0.668521
H      -0.221775   -0.553343   -1.079534
