21

C      -0.222859    1.484859    0.560702
C       0.346367    0.086084    0.475662
C       0.509508   -0.667253   -0.807067
C       0.107971   -0.121884   -2.159694
N       1.685398   -0.191462   -0.058997
C       2.517824    0.885651   -0.580403
C       3.893525    0.391520   -1.054678
N       4.210168   -0.857547   -0.634808
O       4.617278    1.100317   -1.727910
H       0.210831    2.024593    1.409793
H      -0.042861    2.080092   -0.336213
H      -1.305098    1.437821    0.721278
H       0.127651   -0.508273    1.363363
H       0.403398   -1.750559   -0.748726
H       0.063946    0.967698   -2.200129
H       0.804351   -0.457602   -2.936107
H      -0.885426   -0.500037   -2.422550
H       2.093384    1.451976   -1.416880
H       2.708061    1.606860    0.223532
H       3.546456   -1.359302   -0.066498
H       5.109522   -1.243090   -0.865936
