21

C      -0.188051    1.271044    0.090841
C       1.184406    0.726257   -0.181648
C       1.826401    0.265817    1.132088
C       0.637660   -0.724832    1.343964
C       0.973214   -2.218654    1.365406
C      -0.266232   -2.812094    2.048590
C      -0.593109   -1.724208    3.080232
O      -0.116415   -0.494802    2.532042
C       0.000425   -0.218990    0.035964
H      -0.409901    1.749872    1.040745
H      -0.702526    1.701156   -0.762521
H       1.717486    0.933744   -1.100678
H       2.779588   -0.255030    1.006710
H       1.934482    1.030165    1.907384
H       1.165782   -2.622542    0.368744
H       1.865758   -2.388015    1.979454
H      -1.085296   -2.917543    1.329179
H      -0.090168   -3.789513    2.503983
H      -1.666197   -1.636143    3.284710
H      -0.082722   -1.916079    4.035538
H      -0.525948   -0.839189   -0.681759
