19

O      -0.011377   -0.004677   -0.014257
C      -0.021946    1.198620   -0.033894
C      -1.259848    2.120713   -0.059586
N      -0.745458    3.494297    0.083637
C       0.575683    3.417623   -0.589017
C       1.191394    2.156255    0.018898
N       1.544047    2.460713    1.420878
C       0.380946    2.830281    2.247965
C      -0.510058    3.841644    1.498337
H      -1.764285    2.008299   -1.028399
H      -1.978115    1.855704    0.721020
H       0.427437    3.316298   -1.670224
H       1.165423    4.314499   -0.390163
H       2.064581    1.749046   -0.492970
H       2.002058    1.652896    1.830516
H      -0.226891    1.955415    2.536255
H       0.743216    3.279310    3.179093
H      -0.042685    4.831627    1.510849
H      -1.474166    3.926669    2.010277
