19

O      -0.066353   -0.094533   -0.069890
C      -0.050850    1.119863   -0.035225
C       1.251430    1.905225   -0.008524
C       2.494431    1.002844   -0.031332
C       3.735683    1.765822   -0.004880
C       4.745697    2.417302    0.017537
C      -1.305783    1.924494   -0.016317
C      -2.501442    1.370930   -0.780130
C      -2.505993    1.328784    0.707662
H       1.258175    2.597544   -0.860549
H       1.253089    2.546281    0.882757
H       2.454703    0.314264    0.819926
H       2.460226    0.365808   -0.922060
H       5.647623    2.976916    0.036917
H      -1.187519    3.001825    0.014586
H      -3.135056    2.087623   -1.289535
H      -2.327274    0.438871   -1.305195
H      -2.334875    0.368463    1.180171
H      -3.142824    2.015590    1.252962
