18

C      -0.600403    1.345388    0.134271
C      -0.048796   -0.051033   -0.031775
O       0.845092   -0.070570   -1.097380
C       1.360001   -1.367751   -1.386889
C       1.367953   -2.289513   -0.147235
N       2.388182   -3.311359   -0.295249
C       1.464102   -1.461288    1.141405
O       2.185889   -1.731091    2.061761
O       0.637364   -0.390708    1.194573
H       0.225067    2.048649    0.265802
H      -1.171694    1.624454   -0.753871
H      -1.250602    1.388324    1.010482
H      -0.856900   -0.786332   -0.178948
H       0.787734   -1.836492   -2.197290
H       2.385710   -1.222902   -1.738584
H       0.394416   -2.796023   -0.094121
H       3.300141   -2.885197   -0.145331
H       2.292878   -3.986047    0.458462
