16

O      -0.260269    0.050035    0.072534
C      -0.047602    1.238494    0.024996
N       1.200953    1.810646   -0.019569
C       2.395897    1.112240   -0.040220
C       2.712946   -0.189772   -0.060553
C       4.248161   -0.095833   -0.067345
C       4.525784    0.952103    1.053348
C       3.788228    1.781936   -0.037516
O       4.489858    0.991387   -1.039739
H      -0.844580    2.006329    0.014449
H       1.243818    2.816712   -0.080747
H       2.090527   -1.066526   -0.068984
H       4.848073   -0.989252   -0.229424
H       4.051801    0.815265    2.027252
H       5.581061    1.222850    1.136423
H       3.872350    2.863756   -0.156591
