12

N      -0.212008    1.445459   -0.053801
C      -0.020966    0.033992   -0.011490
C      -1.088699   -0.839914   -0.089604
O      -2.401870   -0.587172   -0.209662
N      -0.594356   -2.090447   -0.023514
N       0.765528   -2.103381    0.096296
C       1.104392   -0.820185    0.102858
H       0.271439    1.871824   -0.838109
H       0.128118    1.901154    0.787216
H      -2.469157    0.380184   -0.233182
H      -1.104132   -2.956200   -0.052659
H       2.146829   -0.545791    0.189544
