21

C      -0.115402    1.504838   -0.036035
C       0.063663   -0.001586    0.074025
O       0.900074   -0.504570   -0.998556
C       1.912009   -1.205934   -0.283732
C       1.189955   -1.996695    0.848265
C       2.292684   -2.463357    1.797741
C       3.164582   -1.168235    1.834124
C       2.347729   -0.282549    0.891784
C       0.846459   -0.527974    1.280712
H       0.837038    2.031425    0.068737
H      -0.540025    1.761312   -1.011114
H      -0.800578    1.865839    0.738798
H      -0.920430   -0.487278    0.004236
H       2.616934   -1.663079   -0.979427
H       0.391024   -2.695607    0.594328
H       1.904638   -2.739145    2.782834
H       2.838438   -3.327539    1.406208
H       3.245283   -0.742431    2.838784
H       4.181829   -1.334018    1.465827
H       2.717808    0.722047    0.684824
H       0.464493   -0.297778    2.277012
