21

C       0.736666    1.328165    0.048200
C      -0.003068    0.033896   -0.154334
C      -0.134850   -0.540390   -1.351554
C      -0.863685   -1.842108   -1.604047
C      -0.437259   -3.031540   -0.769845
C      -0.018009   -3.062928    0.496595
C       0.161868   -1.917618    1.463441
O       1.555603   -1.674577    1.690929
C      -0.576598   -0.622544    1.085170
H       1.554626    1.192261    0.766701
H       1.152716    1.713799   -0.886614
H       0.077138    2.096462    0.472633
H       0.289727   -0.048853   -2.224188
H      -1.949113   -1.689923   -1.472534
H      -0.749201   -2.113374   -2.658365
H      -0.499303   -3.985382   -1.291603
H       0.271604   -4.027905    0.908624
H      -0.213387   -2.242884    2.441850
H       1.954195   -1.559005    0.820545
H      -0.511386    0.061999    1.936436
H      -1.640336   -0.855655    0.941613
