16

C      -0.194242    1.127060    0.368088
O       0.179568   -0.222354    0.054059
C       0.899458   -0.854139    0.996259
O       1.245182   -0.370112    2.040014
C       1.216658   -2.269635    0.529196
O       1.937597   -2.981162    1.515331
C       1.171374   -3.448676    2.544980
N       1.972144   -4.035486    3.479655
O      -0.033818   -3.390206    2.577929
H       0.693368    1.746224    0.519968
H      -0.767237    1.482761   -0.487859
H      -0.802669    1.152972    1.275197
H       0.283276   -2.777434    0.274775
H       1.855977   -2.226514   -0.355875
H       2.950237   -3.798713    3.482609
H       1.537730   -4.228582    4.365995
