22

C       0.208012   -0.974496    1.858909
C       0.001548   -0.458111    0.429565
C      -1.404435   -0.666844   -0.116257
C      -2.501785    0.104108    0.580105
O      -2.241640    1.489310    0.457912
C      -3.188594    2.285096    1.125834
C      -1.565975   -0.878447   -1.601774
C      -1.772766   -2.031706   -0.650089
H       1.248161   -0.842149    2.172894
H      -0.419280   -0.438781    2.578425
H      -0.032710   -2.040397    1.935595
H       0.236327    0.611277    0.387488
H       0.711742   -0.960182   -0.238604
H      -3.479382   -0.142590    0.131334
H      -2.561388   -0.173192    1.646793
H      -2.899156    3.329539    0.984926
H      -4.203828    2.141307    0.721506
H      -3.219949    2.067688    2.205918
H      -2.437767   -0.451908   -2.086376
H      -0.671626   -0.875514   -2.215660
H      -1.014294   -2.806787   -0.612301
H      -2.783368   -2.396638   -0.497146
