17

C      -0.018766    1.463064    0.037001
C       1.431823    1.983519   -0.008069
N       2.246885    1.507960    1.114264
C       1.990726    0.161017    1.437158
C       2.684677   -0.713713    2.217800
O       2.087603   -1.937819    2.192756
C       0.994484   -1.846754    1.385082
C       0.881224   -0.581587    0.892491
N      -0.102230   -0.000553    0.068250
H      -0.510301    1.859029    0.936154
H      -0.582866    1.825375   -0.827438
H       1.899891    1.649733   -0.944218
H       1.446560    3.077370   -0.009882
H       2.184953    2.122388    1.915725
H       3.566944   -0.625527    2.828663
H       0.418809   -2.747713    1.257810
H      -0.121255   -0.399732   -0.861265
