18

C       0.237826    1.521634   -0.091440
C       0.047284    0.003245    0.000193
N       0.413343   -0.621242   -1.275671
C       0.957906   -1.765388   -1.286410
O       1.377697   -2.533480   -0.257078
C       1.384737   -1.953967    1.029835
C       2.254268   -0.731508    1.246811
O       3.089933   -0.237761    0.248463
C       0.745208   -0.598608    1.214581
H       1.297316    1.780067   -0.173622
H      -0.284824    1.911265   -0.968759
H      -0.160047    2.011206    0.803250
H      -1.027962   -0.189661    0.122132
H       1.163000   -2.274032   -2.226673
H       1.308988   -2.730779    1.781146
H       2.742752   -0.644788    2.212294
H       2.592130   -0.134735   -0.570832
H       0.249672   -0.408241    2.162974
