20

C      -0.406211    1.492866   -0.032981
C       0.008543    0.017382    0.022212
C       0.819175   -0.416689   -1.178313
C       0.153388   -0.912993   -2.412857
N       0.808011   -1.874366   -1.510764
C       2.145742   -2.255978   -1.961836
C       3.006170   -0.984373   -2.045362
O       4.101475   -0.898624   -2.531905
C       2.215940    0.146037   -1.371517
H       0.465514    2.155242   -0.057790
H      -1.006551    1.701669   -0.924836
H      -1.001867    1.763459    0.843625
H       0.593007   -0.169345    0.933115
H      -0.877842   -0.622377    0.087483
H      -0.929701   -0.990352   -2.451557
H       0.621322   -0.706645   -3.375550
H       2.600562   -2.936913   -1.230973
H       2.126276   -2.777131   -2.924002
H       2.266191    1.054561   -1.977195
H       2.692359    0.373248   -0.408842
