17

C      -0.040049    1.579126   -0.113563
C       0.008747    0.091389   -0.028439
C       0.567519   -1.019067   -0.916923
C       1.373374   -1.622084    0.228046
C       0.330171   -0.933676    1.159317
O      -0.904000   -1.666627    0.870809
C      -0.888536   -1.032753   -0.406491
C       0.571742   -0.641458    2.538532
C       0.801129   -0.365944    3.686291
H       0.944624    2.025615    0.064372
H      -0.370788    1.893127   -1.109536
H      -0.737814    1.996736    0.620166
H       0.818917   -0.966663   -1.968563
H       1.442826   -2.709414    0.325862
H       2.357534   -1.158062    0.322070
H      -1.770774   -1.088217   -1.030255
H       0.996815   -0.131980    4.703626
