16

C      -0.025386    1.575985    0.010814
C      -0.056992    0.037108    0.003029
C      -1.403571   -0.517279    0.012567
C      -2.521803   -0.973483    0.020493
C      -3.859642   -1.534559    0.029912
O      -4.073992   -2.723674    0.024783
C      -4.965420   -0.483979    0.046846
O      -6.215971   -1.115641    0.054984
H       1.008456    1.932261    0.003140
H      -0.535791    1.980311   -0.867256
H      -0.519456    1.971024    0.902351
H       0.473685   -0.343819   -0.879009
H       0.489840   -0.352994    0.871081
H      -4.795539    0.152842    0.932571
H      -4.812438    0.163535   -0.834193
H      -6.893875   -0.433909    0.065573
