18

C      -0.716813    1.291085   -0.054195
C       0.081193   -0.008492   -0.076645
C       1.301507   -0.011928   -1.031517
C       2.248690   -0.988381   -0.379525
C       1.905921   -1.257063    0.877477
C       0.661680   -0.487280    1.304115
C       1.007007    0.587655    2.234982
C       1.304701    1.462702    3.004956
H      -0.100242    2.126912    0.288916
H      -1.089701    1.529171   -1.056028
H      -1.580583    1.219512    0.614867
H      -0.579315   -0.820465   -0.403365
H       1.020564   -0.295611   -2.052100
H       1.761629    0.984709   -1.102142
H       3.122456   -1.386773   -0.883697
H       2.450170   -1.888732    1.569405
H      -0.065300   -1.139899    1.804864
H       1.567101    2.233558    3.686340
