17

O       0.033355    0.041008   -0.051519
C       0.025110    1.236857    0.020971
N      -1.004814    2.167029    0.073527
C      -0.144212    3.351439    0.040206
C       1.077522    2.381948    0.035371
N       1.414247    2.778798   -1.364911
C       0.349914    3.803227   -1.338570
C      -0.444014    4.250494   -2.522721
C       0.495071    5.214408   -1.817395
H      -1.964772    2.058998   -0.224623
H      -0.357630    4.106387    0.797590
H       1.881779    2.368516    0.768779
H       2.341596    3.185151   -1.428636
H      -0.138639    3.869084   -3.491086
H      -1.513873    4.395822   -2.411183
H       0.067147    6.010596   -1.215598
H       1.414558    5.486657   -2.326821
