16

O       0.452382    0.940505   -0.856823
C      -0.007752    0.433107    0.382503
C      -1.289215   -0.379190    0.224458
C      -1.187415   -1.844205   -0.244274
C      -1.808027   -2.176026    1.126995
O      -1.815730   -0.778083    1.519205
C      -2.362807    0.442825   -0.483608
O      -2.909575    0.123292   -1.505668
H       0.667642    0.196286   -1.429079
H       0.747007   -0.177361    0.899838
H      -0.215425    1.303161    1.015201
H      -1.797824   -2.073287   -1.117363
H      -0.169216   -2.210717   -0.391287
H      -2.820928   -2.591961    1.098432
H      -1.191616   -2.774223    1.805917
H      -2.640313    1.368229    0.068528
