18

C      -0.164293    1.410362   -0.018769
O      -0.198380   -0.003665    0.095330
C       0.559499   -0.581290    1.135922
C       2.066112   -0.281937    1.023610
C       0.050730   -0.120327    2.456263
N      -0.347877    0.244993    3.477584
C       0.346033   -2.099012    1.064747
C      -0.722276   -2.709732    0.272168
O       0.640642   -2.704337   -0.181374
H       0.816222    1.775451   -0.347719
H      -0.906666    1.668632   -0.776103
H      -0.433423    1.899411    0.926546
H       2.276145    0.783284    1.136491
H       2.616550   -0.817816    1.801318
H       2.408839   -0.623764    0.044379
H       0.731681   -2.624795    1.938794
H      -1.109543   -3.683622    0.565416
H      -1.394073   -2.068949   -0.289431
