16

O      -0.107897    1.309318    0.157847
C       0.046449   -0.050971    0.071369
C      -0.576400   -1.086654   -0.841809
N       0.472120   -2.070520   -0.351313
C       1.264818   -0.944099    0.349436
C       1.066355   -1.637136    1.711349
C      -0.208509   -2.173866    1.032270
C      -1.066950   -0.980315    0.587361
O      -2.205880   -0.441856    1.130120
H       0.314234    1.714026   -0.607912
H      -1.039589   -1.075250   -1.820724
H       2.246590   -0.676570   -0.045129
H       1.801798   -2.429620    1.870929
H       0.963873   -1.017976    2.605316
H      -0.678934   -3.118470    1.310750
H      -2.950205   -1.010709    0.904826
