19

O      -0.184824    1.656848   -0.034352
C      -0.140848    0.267558    0.249462
C      -1.471277   -0.435277   -0.036383
C      -1.435394   -1.913877    0.298577
C      -2.610945   -2.798238   -0.175710
C      -1.532354   -3.565107   -0.958761
O      -0.496830   -2.648247   -0.547743
C      -1.216381   -4.970762   -0.481851
O      -2.034918   -5.743390   -0.056242
H      -0.275042    1.759776   -0.986948
H       0.666127   -0.235267   -0.302404
H       0.098353    0.190874    1.316191
H      -2.266396    0.046006    0.546933
H      -1.729105   -0.317566   -1.097914
H      -1.172730   -2.059486    1.355655
H      -3.124123   -3.387913    0.584153
H      -3.343085   -2.277662   -0.794693
H      -1.645419   -3.590227   -2.053350
H      -0.135231   -5.226907   -0.551380
