21

C      -0.058330    1.555794    0.077054
C       0.040512    0.056324    0.007466
C      -0.858272   -0.830162    0.827105
C       0.626310   -0.949574    1.022161
C       1.237742   -1.751005   -0.141186
O       0.419952   -2.807258   -0.710461
C      -0.056562   -1.928079   -1.762174
C       0.716983   -0.726715   -1.167716
C       1.638355    0.064174   -2.068993
H       0.884265    2.047124   -0.185390
H      -0.830891    1.936761   -0.602647
H      -0.327817    1.876481    1.088647
H      -1.382982   -0.313044    1.624789
H      -1.408689   -1.661903    0.402105
H       1.103435   -0.771404    1.979338
H       2.290257   -2.032628   -0.050122
H       0.312207   -2.252913   -2.744057
H      -1.150792   -1.865735   -1.792277
H       1.079289    0.757099   -2.708872
H       2.353956    0.656439   -1.488798
H       2.211079   -0.604280   -2.720276
