16

N      -0.025465    1.484163    0.023593
C       1.456010    1.418287   -0.005440
C       1.988284    0.842553    1.368478
O       0.844312    0.595102    2.225163
C       0.549608   -0.543967    1.376939
C      -0.014467    0.001120    0.003209
C       1.318928    0.084092   -0.812912
O       2.237731   -0.866399   -0.342160
C       2.066743   -0.680591    1.032378
H      -0.368978    1.846030    0.914041
H       1.990722    2.287415   -0.389773
H       2.785964    1.397465    1.861298
H      -0.031337   -1.317702    1.877867
H      -0.905055   -0.503383   -0.372742
H       1.284068    0.113641   -1.898236
H       2.703687   -1.337912    1.619338
