18

N       0.151037   -1.142074    0.432456
C       0.106409   -0.002213    0.245744
C       0.074807    1.439843   -0.013255
O      -0.325095    2.213432    1.129301
C       0.842500    3.079569    1.016065
C       1.775316    2.965063    2.214885
C       2.485141    1.611441    2.014883
C       2.667738    1.505622    0.484406
C       1.432625    2.191999   -0.117332
H      -0.588386    1.618607   -0.869937
H       0.539518    4.101649    0.770113
H       2.496476    3.791424    2.177476
H       1.229512    3.041210    3.159325
H       3.433302    1.544674    2.553748
H       1.848131    0.798371    2.375673
H       3.559244    2.060358    0.170834
H       2.788345    0.474755    0.139971
H       1.609013    2.643955   -1.092828
