19

O       0.082364    1.379163   -0.026874
C       0.014744   -0.008441   -0.048813
C       0.658967   -0.682856   -1.301024
C       0.082634   -2.127910   -1.280385
C      -0.784858   -2.138001    0.003519
C       0.156270   -2.089100    1.231756
C       0.676043   -0.653620    1.163429
O       1.415037   -0.068918    1.917775
C      -1.369199   -0.705269   -0.002294
H       0.683377    1.602118    0.701089
H       0.340653   -0.117923   -2.181126
H       1.751161   -0.646531   -1.266379
H      -0.534306   -2.320762   -2.162410
H       0.861337   -2.895468   -1.255923
H      -1.512194   -2.949176    0.043675
H      -0.388413   -2.221729    2.173812
H       0.969735   -2.820705    1.218826
H      -1.939673   -0.455085    0.897377
H      -1.976324   -0.484684   -0.884351
