18

C      -0.129438    1.247667    0.225423
O      -0.020140   -0.150437    0.014963
C       0.693697   -0.565844   -1.154701
C       2.073342    0.063798   -1.307804
C       0.770618   -2.087874   -1.003727
O       1.291056   -2.607265   -2.215806
C      -0.224175   -0.245509   -2.347477
O      -0.000561    0.578392   -3.193753
H       0.837694    1.705056    0.468599
H      -0.552998    1.770521   -0.642344
H      -0.802137    1.375207    1.076654
H       2.621104   -0.002354   -0.362976
H       2.628501   -0.480588   -2.074666
H       2.007191    1.107364   -1.620173
H       1.404508   -2.328307   -0.138313
H      -0.241606   -2.464852   -0.796110
H       1.293359   -3.566829   -2.162226
H      -1.184511   -0.809374   -2.319475
