17

C      -0.109104    1.267824   -0.372900
C       0.106738   -0.159701    0.035604
O      -1.124491   -0.906178    0.198750
C      -0.713017   -1.410298    1.498031
C       0.664801   -0.758002    1.350324
O       1.598471   -1.581323    0.625032
C       1.206866   -1.021197   -0.649502
C       0.702009   -2.046104   -1.644656
O       0.593232   -1.814062   -2.820296
H       0.837424    1.815571   -0.400876
H      -0.554989    1.301490   -1.372853
H      -0.790266    1.768228    0.320945
H      -1.340067   -0.996380    2.297410
H      -0.710283   -2.503539    1.550396
H       1.120978   -0.225738    2.186113
H       2.015149   -0.433381   -1.101710
H       0.427801   -3.024494   -1.196167
