16

O       0.008515    1.388240    0.146306
C      -0.035435    0.001382   -0.015400
C      -1.471940   -0.522398   -0.176251
C      -1.508359   -2.040211   -0.308198
O      -2.409837   -2.728606    0.121941
N      -0.407753   -2.590518   -0.924527
C       0.605787   -1.875616   -1.676998
C       0.759802   -0.428652   -1.233764
O       1.450904    0.356549   -1.840955
H       0.658349    1.708747   -0.499293
H       0.415653   -0.508185    0.856224
H      -2.083863   -0.242395    0.681864
H      -1.928407   -0.067726   -1.064439
H      -0.460188   -3.592971   -1.038024
H       1.579478   -2.364418   -1.547038
H       0.406030   -1.862635   -2.758335
