14

N       0.073892    1.382808    0.168480
C      -0.034913    0.013301    0.052226
C      -1.208029   -0.674102    0.031548
C      -1.216079   -2.117163   -0.013889
O      -2.193585   -2.838733   -0.034656
N       0.078066   -2.694768   -0.050708
C       1.290292   -2.050215   -0.019684
O       2.370850   -2.596999   -0.014604
N       1.166713   -0.659534    0.007955
H       0.840634    1.812627   -0.329937
H      -0.793007    1.883512    0.042638
H      -2.159954   -0.163347    0.035087
H       0.112507   -3.704315   -0.076395
H       2.037201   -0.169402    0.145506
