20

C      -0.043448    1.491707    0.026289
C      -0.002413    0.035992    0.009473
C       0.032963   -1.168170    0.008860
C       0.036153   -2.630378   -0.003513
C      -1.399095   -3.182503    0.099628
C       0.777654   -3.158762   -1.275335
C       2.227515   -2.650707   -1.378789
C       0.758905   -4.625326   -1.302816
N       0.758071   -5.781386   -1.315937
H       0.754150    1.905468    0.652934
H       0.078037    1.904666   -0.981059
H      -0.998310    1.856609    0.420116
H       0.604882   -2.988036    0.865892
H      -1.392630   -4.274991    0.132093
H      -1.881543   -2.808651    1.005653
H      -1.997916   -2.861250   -0.758219
H       0.215650   -2.810600   -2.151061
H       2.702542   -3.017421   -2.291768
H       2.231078   -1.559152   -1.389214
H       2.819219   -2.993890   -0.525057
