21

C       0.422836   -1.248320    1.676428
C       0.053981   -0.494526    0.391570
C      -1.383876   -0.693378   -0.083588
C      -1.632024   -0.831450   -1.573613
C      -1.755379   -2.032388   -0.672141
C      -2.474541    0.044192    0.689824
O      -2.560466   -0.340446    2.036869
C      -2.279089    1.548136    0.595599
O      -2.253950    2.251155    1.577356
H       1.471238   -1.070454    1.936541
H      -0.205166   -0.936613    2.511497
H       0.287568   -2.327223    1.547418
H       0.247600    0.578285    0.529691
H       0.725291   -0.814820   -0.414506
H      -2.542018   -0.414676   -1.993796
H      -0.774198   -0.767298   -2.233687
H      -0.979023   -2.788039   -0.722536
H      -2.745341   -2.427257   -0.471409
H      -3.434336   -0.157780    0.175560
H      -2.541615    0.487347    2.544235
H      -2.170594    1.964712   -0.425450
