21

C       0.150149    1.531874    0.001956
C       0.001223    0.011669    0.003216
C      -1.473968   -0.501346    0.020116
C      -1.468613   -2.054343    0.024556
C      -2.152620   -0.025385    1.236678
C      -2.685298    0.336661    2.251410
C      -2.192243   -0.022460   -1.172058
C      -2.764021    0.344083   -2.166131
C      -3.468280    0.794181   -3.358683
H       1.207647    1.812418   -0.014088
H      -0.332374    1.971796   -0.875555
H      -0.304615    1.971296    0.894461
H       0.479378   -0.414850   -0.885838
H       0.504164   -0.415555    0.878238
H      -0.940424   -2.424021    0.907879
H      -2.489395   -2.441571    0.039582
H      -0.966706   -2.424737   -0.873506
H      -3.168362    0.665444    3.138057
H      -4.108927    0.003692   -3.764878
H      -4.105846    1.657719   -3.139447
H      -2.768046    1.090949   -4.147272
