13

O      -0.042371    1.492066   -0.151329
C      -0.020010    0.093576   -0.105251
C      -1.361129   -0.612168   -0.161271
C      -1.802729   -0.750167   -1.586687
N      -0.817201   -1.743170   -0.965475
C       0.296182   -0.717787   -1.387780
C      -0.697008   -0.195094   -2.429053
O      -0.608609    0.236413   -3.539904
H       0.849308    1.827144   -0.012823
H       0.559718   -0.289541    0.744354
H      -2.062445   -0.779326    0.648542
H      -2.811639   -1.032714   -1.857789
H       1.292377   -1.059831   -1.655809
