13

N       0.032408    1.349241    0.009517
C       1.137090    2.115183    0.002695
C       2.337905    1.463402   -0.012543
C       3.716679    1.746192   -0.024445
N       4.429100    0.611760   -0.037741
C       3.567078   -0.446244   -0.034998
C       2.253867   -0.003401   -0.019510
N       1.080227   -0.675461   -0.011535
N      -0.027941   -0.039940    0.002751
H      -0.890444    1.755590    0.020795
H       0.987614    3.190637    0.009935
H       4.198072    2.715015   -0.023916
H       3.927610   -1.464485   -0.044124
