18

C      -0.048732    1.588612   -0.001181
C       0.118754    0.069184    0.124314
C       0.743769   -0.541086   -1.115077
C       0.650055   -2.033485   -1.425412
C      -0.829253   -1.845667   -1.917901
N      -0.114060   -0.531733   -2.395832
C       0.773992   -1.694084   -2.953718
C      -0.479283   -2.503197   -3.244133
O      -0.920739   -3.271537   -4.039728
H       0.918887    2.081918   -0.143224
H      -0.679054    1.838784   -0.859323
H      -0.509644    2.009676    0.896835
H       0.759889   -0.168104    0.983649
H      -0.852000   -0.397669    0.328214
H       1.723695   -0.084577   -1.307386
H       1.065392   -2.905680   -0.910974
H      -1.745143   -1.817004   -1.333234
H       1.680074   -1.480982   -3.517980
