19

C      -0.735673    1.300750    0.207762
C      -0.249886   -0.142145    0.119077
C       0.796950   -0.406756   -1.003386
C       1.919263   -0.438270    0.066031
C       0.848144   -0.566138    1.175726
C       1.019274    0.327557    2.390252
N       0.346237   -0.080466    3.507528
O       1.680483    1.350586    2.373818
H       0.100592    2.002782    0.268417
H      -1.334225    1.551478   -0.674733
H      -1.360961    1.458049    1.093507
H      -1.111710   -0.816390    0.102971
H       0.649691   -1.374108   -1.491525
H       0.874620    0.360530   -1.778566
H       2.654535   -1.243120   -0.000140
H       2.443193    0.514491    0.163801
H       0.693470   -1.604402    1.485752
H      -0.236090   -0.898801    3.514586
H       0.356580    0.516353    4.318415
