18

C      -0.025618    1.384682   -0.190823
N      -0.036926   -0.037586    0.059600
C      -1.110327   -1.024967    0.027071
C      -1.538293   -1.496067   -1.388014
O      -1.568173   -0.453465   -2.332590
C      -0.354889   -2.515179   -1.418468
C       0.000273   -2.129249    0.052568
C       0.994256   -0.951182    0.091764
O       2.190529   -0.814946    0.085478
H       1.017061    1.711052   -0.168502
H      -0.457996    1.614306   -1.168861
H      -0.580876    1.926897    0.583204
H      -1.883244   -0.894036    0.786857
H      -2.503644   -2.020663   -1.337257
H      -1.745970   -0.829844   -3.200366
H      -0.668569   -3.552393   -1.551054
H       0.430952   -2.284837   -2.141305
H       0.071313   -2.909723    0.805875
