19

C      -0.030525    1.592031   -0.006934
C       0.034749    0.070934    0.081969
N      -1.298035   -0.508765   -0.111443
C      -1.376100   -1.951568   -0.011091
C      -1.228269   -2.618638    1.404524
O      -2.641335   -2.876592    1.466065
C      -2.838653   -2.467493    0.103567
C      -0.572811   -2.580581   -1.061983
N       0.060920   -3.105670   -1.873168
H       0.967626    2.025421    0.100399
H      -0.446234    1.903925   -0.968851
H      -0.660239    2.009409    0.787483
H       0.685074   -0.321063   -0.707829
H       0.490297   -0.226885    1.042982
H      -1.950338   -0.104096    0.554220
H      -0.635772   -3.540437    1.427431
H      -0.890734   -1.940300    2.196305
H      -3.595367   -1.681921   -0.002627
H      -3.083303   -3.306497   -0.556818
