22

C       0.048395    1.546943    0.022062
C      -0.022684    0.017349   -0.017835
O      -1.395436   -0.400390   -0.009979
C       0.685582   -0.553184   -1.258222
C       0.543688   -2.078516   -1.306108
C       0.944502   -2.740721   -0.000854
C       2.215964   -2.387117    0.684219
N       0.932210   -1.997975    1.264795
C       0.584732   -0.569750    1.271978
H       1.083470    1.902768    0.001614
H      -0.469062    1.977246   -0.844033
H      -0.433866    1.928406    0.927193
H      -1.814526   -0.045550   -0.801909
H       0.252256   -0.108633   -2.163792
H       1.739976   -0.252019   -1.247616
H      -0.504751   -2.321367   -1.504959
H       1.131625   -2.497719   -2.131213
H       0.583204   -3.762972    0.104048
H       2.776813   -3.135372    1.239844
H       2.834702   -1.611037    0.234476
H       1.478925    0.005671    1.537660
H      -0.152297   -0.409306    2.066439
