22

C       0.042389    1.362261   -0.273050
C       0.091027   -0.114684    0.144494
C       0.705959   -0.281070    1.541724
C      -1.299497   -0.727781    0.097760
C      -2.021533   -1.196261   -1.137766
C      -1.077674   -1.891912   -2.129510
C      -0.668940   -2.904317   -1.011472
C      -1.619021   -2.193092   -0.036853
H       1.041573    1.810775   -0.266318
H      -0.374582    1.476000   -1.278753
H      -0.585660    1.942021    0.414272
H       0.736334   -0.641437   -0.568457
H       0.761063   -1.336425    1.827082
H       1.717892    0.135872    1.583325
H       0.103104    0.236290    2.297954
H      -1.984467   -0.237964    0.791690
H      -3.009542   -0.826554   -1.387543
H      -1.616213   -2.381851   -2.943669
H      -0.283920   -1.277768   -2.567294
H      -0.995144   -3.920237   -1.244750
H       0.388195   -2.942546   -0.728853
H      -2.253019   -2.700100    0.681634
