16

C      -0.014474    1.674356   -0.049603
C       0.027115    0.145298   -0.085869
N       0.848507   -0.407151   -1.142744
C       1.816883   -1.294091   -0.702770
O       2.604004   -1.901530   -1.392231
C       1.658269   -1.304965    0.784514
C       0.668938   -0.482840    1.136993
C      -1.391431   -0.456019   -0.205988
O      -2.409774    0.164525   -0.069608
H       0.993805    2.077267    0.067414
H      -0.451794    2.066869   -0.971967
H      -0.640250    2.012834    0.779083
H       0.717849   -0.206442   -2.120768
H       2.299448   -1.894040    1.424583
H       0.308842   -0.260762    2.133329
H      -1.375434   -1.542004   -0.443810
