20

C      -0.035050    1.546951    0.016995
C      -0.004794    0.005881    0.067858
C       0.714616   -0.490484    1.337131
C      -1.373898   -0.580035   -0.057774
C      -2.006814   -1.312959   -1.023005
N      -1.521154   -1.705082   -2.283708
C      -3.342969   -1.547729   -0.546353
C      -3.421616   -0.942033    0.664956
O      -2.249149   -0.345627    0.980550
H       0.977282    1.959494    0.083258
H      -0.492367    1.900792   -0.911425
H      -0.619590    1.944438    0.852555
H       0.565169   -0.345675   -0.803126
H       1.725009   -0.073275    1.399435
H       0.165034   -0.184974    2.232488
H       0.790730   -1.581835    1.347152
H      -0.510748   -1.675162   -2.338086
H      -1.830753   -2.634868   -2.538826
H      -4.127486   -2.088507   -1.053165
H      -4.209521   -0.850536    1.394589
