16

C       0.001871    1.537106    0.008797
C       1.315097    0.807140   -0.004640
C       0.018391    0.020527    0.035149
C      -0.390786   -0.739262    1.229300
C      -1.051378   -1.949521    1.341193
C      -1.167595   -2.177742    2.728733
N      -0.627649   -1.196127    3.442108
N      -0.162632   -0.335560    2.508955
H      -0.295770    2.051427    0.916653
H      -0.330936    2.022955   -0.901436
H       1.889288    0.789030   -0.924040
H       1.922328    0.817369    0.894465
H      -0.264758   -0.471829   -0.888341
H      -1.395300   -2.570281    0.529514
H      -1.622922   -3.016731    3.234600
H       0.297044    0.503236    2.819056
