20

C      -0.088261    1.540084   -0.023433
C      -0.057552    0.019480   -0.022900
C       1.174698   -0.613901   -0.724741
O       1.966271   -0.290358    0.476177
C       0.706891   -0.622690    1.166823
C       0.637361   -2.145445    0.904424
C       0.994174   -2.138742   -0.538343
N      -0.345085   -2.572364   -0.106052
C      -0.562913   -4.013679   -0.166610
H       0.892401    1.954534    0.221055
H      -0.390325    1.919636   -1.005775
H      -0.814253    1.911677    0.708107
H      -1.027019   -0.413893   -0.264676
H       1.609130   -0.239560   -1.651711
H       0.658367   -0.257421    2.192669
H       1.030771   -2.864750    1.614226
H       1.674635   -2.852654   -0.989224
H       0.338170   -4.611061    0.053411
H      -1.339799   -4.288163    0.553666
H      -0.914037   -4.280162   -1.168303
