14

O       0.045766   -0.028510    0.234914
C       0.008334    1.155031    0.032849
N      -1.183780    1.864438   -0.064480
C      -1.251431    3.247973   -0.024867
C      -0.156356    3.982555   -0.280156
C       1.088103    3.212240   -0.660175
O       1.127531    1.900240   -0.064366
C      -0.123084    5.392784   -0.254378
C      -0.035546    6.595504   -0.254360
H      -2.002401    1.311470    0.131655
H      -2.214013    3.675951    0.223307
H       1.164305    3.100300   -1.751100
H       1.990096    3.715206   -0.307936
H       0.023605    7.655546   -0.249090
