20

C       0.129471    1.475182    0.311547
C       0.057379   -0.011563   -0.055107
C      -1.354384   -0.538348   -0.143170
C      -2.127481   -0.941607    1.085540
C      -1.690963   -1.984289    0.070859
C      -2.715169   -2.620005   -0.853457
N      -3.420331   -1.704776   -1.741148
C      -3.052469   -0.500052   -1.816219
O      -2.076295    0.162203   -1.146431
H       1.168214    1.816070    0.349604
H      -0.401801    2.082224   -0.425925
H      -0.324259    1.662302    1.290297
H       0.555975   -0.183680   -1.017169
H       0.595108   -0.610422    0.688970
H      -1.623712   -0.904330    2.045461
H      -3.181832   -0.685310    1.114901
H      -0.868180   -2.630923    0.363111
H      -2.211223   -3.361193   -1.487285
H      -3.465888   -3.179641   -0.280024
H      -3.547057    0.188005   -2.499488
