19

C      -0.134435    1.428632    0.027879
C       0.012547   -0.062090   -0.024140
C       0.927386   -0.896281   -0.921342
C       0.100543   -2.126310   -0.456498
C       0.452025   -2.260254    1.055865
C      -0.283479   -0.937722    1.232507
O      -0.610318   -0.286672    2.405666
C      -1.070301   -1.113736   -0.056209
O      -2.383120   -0.970961   -0.425050
H       0.793466    1.904562    0.365504
H      -0.380685    1.834888   -0.959278
H      -0.925966    1.717798    0.723868
H       0.764263   -0.662156   -1.977868
H       2.003600   -0.911385   -0.710071
H      -0.001413   -3.013356   -1.077609
H      -0.082062   -3.091040    1.530910
H       1.515891   -2.310513    1.313992
H      -1.258957   -0.817231    2.880800
H      -2.906877   -1.654763    0.008309
