16

O       0.119946    1.372604    0.078932
C       0.051508   -0.009430    0.033851
C      -0.326630   -0.770377   -1.202094
C      -1.243124   -0.822607    0.025616
O      -1.093703   -1.942573    0.847589
C      -0.053333   -1.641031    1.796085
C       0.934169   -0.709364    1.065497
C      -2.528348   -0.187189   -0.008966
N      -3.539796    0.373533   -0.059868
H      -0.521526    1.750595   -0.533197
H      -0.688563   -0.200364   -2.053058
H       0.189237   -1.693089   -1.446776
H      -0.485905   -1.138753    2.671609
H       0.380392   -2.591726    2.112709
H       1.743791   -1.268241    0.588098
H       1.372051    0.034970    1.732943
