19

C      -0.275576    1.509376    0.240601
C       0.077853    0.036999    0.180778
O       1.060497   -0.313144   -0.858727
C       1.787301   -1.123092    0.084354
C       2.256883   -2.468529   -0.397867
O       3.080989   -3.122334    0.549860
C       2.401118   -0.213743    1.089271
O       2.850547    1.062067    0.752303
C       0.939705   -0.620359    1.253421
H      -0.678427    1.842774   -0.721528
H      -1.049401    1.665951    0.999967
H       0.589464    2.119815    0.503388
H      -0.823116   -0.560622   -0.008148
H       1.400026   -3.128546   -0.569733
H       2.761005   -2.335068   -1.368438
H       3.912941   -2.640200    0.596079
H       3.045962   -0.692464    1.820737
H       2.565571    1.206256   -0.160744
H       0.574897   -1.139863    2.129972
