14

N      -0.099261    1.207572   -0.449832
C      -0.049716   -0.009996   -0.081980
N      -1.186413   -0.744077    0.169167
C      -1.095964   -1.965353    0.943492
C       0.046294   -2.782734    0.373083
O       1.281481   -2.048260    0.400740
C       1.287528   -0.735596    0.085242
O       2.328384   -0.150144   -0.030948
H       0.853857    1.536342   -0.609105
H      -2.025934   -0.186571    0.240757
H      -0.926671   -1.782112    2.016471
H      -2.028218   -2.529090    0.843102
H       0.229713   -3.683618    0.961516
H      -0.171382   -3.068776   -0.662246
