20

C      -0.038803    1.638411    0.196979
C      -0.010941    0.105505    0.096295
O       0.677235   -0.452697    1.185457
C      -1.434664   -0.474610    0.085938
O      -1.858610   -1.064926    1.074193
N      -2.186185   -0.289813   -1.016550
C      -1.899250    0.104651   -2.403043
C      -3.300548   -0.442194   -2.800505
C      -3.502931   -0.861062   -1.315086
H       0.985385    2.009907    0.284722
H      -0.502394    2.100206   -0.680551
H      -0.593100    1.944675    1.089168
H       0.499446   -0.182785   -0.836006
H      -0.017469   -0.886141    1.711715
H      -1.757116    1.181227   -2.542174
H      -1.047046   -0.422342   -2.846390
H      -3.995521    0.318010   -3.157305
H      -3.280994   -1.269140   -3.510228
H      -3.556561   -1.937026   -1.123069
H      -4.324801   -0.369290   -0.786128
