14

C      -0.034601    1.551151    0.000393
C      -0.012812    0.056732    0.029605
C      -0.026828   -0.790349   -1.032070
O       0.001389   -2.101490   -0.632538
C       0.034261   -2.111768    0.706961
C       0.027376   -0.827242    1.166005
N       0.056445   -0.477605    2.557865
O       0.089081   -1.396824    3.370391
O       0.046738    0.716319    2.843202
H       0.847701    1.967998    0.493274
H      -0.063938    1.911048   -1.031279
H      -0.904265    1.943263    0.534368
H      -0.055063   -0.630080   -2.096882
H       0.059875   -3.064393    1.206230
