18

C      -0.107491    1.528743   -0.157998
C       0.008754    0.031976    0.013004
C       1.317697   -0.677421   -0.180745
C       0.721881   -0.601257    1.208217
C       1.356402    0.197155    2.271047
N       2.287927    1.121354    2.059808
N       2.541524    1.570417    3.313922
C       1.783442    0.909311    4.208141
N       1.018411    0.033208    3.590519
H       0.787042    2.039679    0.206252
H      -0.238448    1.784712   -1.215341
H      -0.969863    1.924117    0.390327
H      -0.873087   -0.521823   -0.299721
H       1.332507   -1.643390   -0.673680
H       2.194126   -0.062960   -0.356971
H       0.259299   -1.498731    1.602396
H       3.231795    2.288117    3.459850
H       1.823993    1.094237    5.271257
