17

O       0.294958    1.237203   -0.114029
C       0.119825   -0.159972    0.032708
C      -1.365614   -0.568710   -0.012255
C      -1.540543   -2.061003   -0.037126
C      -1.194746   -2.843208   -1.293629
O      -0.136868   -3.761258   -1.088557
N      -1.945823   -2.612661    1.042825
O      -2.041545   -4.018367    0.897347
H      -0.086208    1.666200    0.658754
H       0.666111   -0.619698   -0.796916
H       0.570544   -0.534437    0.963635
H      -1.886038   -0.159987    0.860072
H      -1.811919   -0.126013   -0.911452
H      -2.107602   -3.345590   -1.650644
H      -0.865948   -2.158219   -2.079679
H      -0.440072   -4.356645   -0.392077
H      -2.343172   -4.294892    1.768587
