17

N       0.011602    1.484863    0.162625
C      -0.017707    0.040973   -0.013868
C      -1.446019   -0.507421   -0.006546
C      -1.439715   -2.031234   -0.150150
C      -0.642899   -2.521804   -1.346341
O      -0.842803   -3.570615   -1.911569
N       0.384112   -1.674390   -1.766963
C       0.741188   -0.427746   -1.265714
O       1.615572    0.225919   -1.788751
H       0.961271    1.805167   -0.014221
H      -0.549913    1.919025   -0.567083
H       0.520917   -0.409069    0.835323
H      -1.941220   -0.208101    0.920444
H      -2.012464   -0.056620   -0.832348
H      -0.990857   -2.491102    0.740820
H      -2.445051   -2.446880   -0.242500
H       0.911496   -1.995310   -2.571500
