14

C       0.018864    1.415747   -2.354091
C       0.060982   -0.078824   -2.532242
O       0.247862   -0.670591   -3.558625
O      -0.149834   -0.687500   -1.324808
C      -0.159807   -2.052811   -1.215039
C      -0.364104   -2.699461   -0.036484
O      -0.319740   -4.022995   -0.236667
N      -0.079883   -4.276030   -1.581713
C       0.014977   -3.104810   -2.161835
H      -0.950410    1.717587   -1.947415
H       0.784557    1.729661   -1.639156
H       0.186414    1.897072   -3.316349
H      -0.544519   -2.358317    0.969562
H       0.201760   -3.035956   -3.219119
