18

C      -0.099670    1.314734    0.017468
O      -0.025318   -0.111812    0.103838
C       0.643808   -0.566166    1.153254
N       1.232120    0.088262    2.098868
C       1.761674   -0.925591    2.915384
C       2.533840   -0.588238    4.145263
C       1.447553   -2.134141    2.392006
C       1.695239   -3.550682    2.753585
O       0.711289   -1.904259    1.231258
H       0.901962    1.747907   -0.052892
H      -0.672995    1.525315   -0.885199
H      -0.601547    1.727079    0.897208
H       1.923253   -0.002566    4.841262
H       2.873621   -1.488491    4.663371
H       3.412757    0.018202    3.900396
H       0.759196   -4.098463    2.914460
H       2.252963   -4.078125    1.970724
H       2.278563   -3.600948    3.675789
