16

O       0.719242   -0.007416    0.792645
C       0.452660    1.137304    0.499484
N       1.084641    1.855356   -0.481111
C       1.419312    3.316953   -0.458999
C       2.939348    3.729623   -0.074118
C       3.983325    2.774631    0.546602
C       3.417343    1.420631    0.086396
C       2.495124    1.692179   -0.858749
C       2.557400    3.136725   -1.383375
H      -0.369420    1.717456    0.964029
H       0.631635    4.063164   -0.470060
H       3.046501    4.807995    0.035946
H       4.996243    3.051561    0.219594
H       3.996197    2.763639    1.643136
H       3.287887    0.605093    0.787831
H       2.710118    3.467135   -2.402079
