15

N      -0.057419    1.365341   -0.082090
C       0.073859    0.038565    0.135211
O       1.116175   -0.532499    0.391533
C      -1.252276   -0.741754    0.053002
O      -2.294759    0.026991   -0.501733
C      -1.054665   -2.188274   -0.469091
O      -1.331210   -2.711060    0.877437
C      -1.617665   -1.462257    1.346491
N      -2.125241   -1.045246    2.413572
H       0.763238    1.946784   -0.058901
H      -0.947360    1.737128   -0.366824
H      -2.992937    0.084148    0.162297
H      -1.818287   -2.513562   -1.177385
H      -0.043833   -2.443459   -0.782183
H      -2.342958   -1.804028    3.061127
