20

C       1.063841    0.246996    0.063562
C      -0.420545    0.460008   -0.236410
N      -1.134911   -0.811910   -0.169478
C      -1.918653   -1.132221   -1.095545
O      -2.226409   -0.396871   -2.235243
C      -3.165653   -1.285942   -2.906106
C      -4.092971   -1.723981   -1.749764
C      -2.750023   -2.379160   -1.265063
C      -2.470425   -2.660699   -2.785315
H       1.595961    1.203576    0.082931
H       1.192813   -0.244810    1.031998
H       1.527594   -0.386372   -0.699343
H      -0.849163    1.121188    0.528622
H      -0.545067    0.963321   -1.203641
H      -3.494774   -0.828010   -3.836109
H      -4.535722   -0.937003   -1.136041
H      -4.838521   -2.463133   -2.047020
H      -2.683864   -3.129662   -0.483171
H      -3.067904   -3.485444   -3.176863
H      -1.432279   -2.729297   -3.116450
