21

C      -0.017156    1.555441   -0.431623
C       0.051322    0.057321   -0.174977
C       1.216347   -0.719452   -0.813426
O       2.432004   -0.231298   -0.227429
C       1.672107   -1.211088    0.493592
C       0.550975   -0.462286    1.226819
C       0.929381    0.417343    2.441871
C       0.392696   -0.705169    3.373368
C      -0.361288   -1.305214    2.154555
H       0.956025    2.018430   -0.247209
H      -0.304074    1.763936   -1.468249
H      -0.755252    2.037583    0.218432
H      -0.903231   -0.426500   -0.413820
H       1.290648   -1.160102   -1.801650
H       2.180555   -2.128627    0.771564
H       1.978157    0.709909    2.530279
H       0.311291    1.319060    2.495854
H       1.191744   -1.363637    3.724846
H      -0.207462   -0.402754    4.234364
H      -1.401286   -0.966565    2.108425
H      -0.346455   -2.391555    2.023863
