14

O      -0.065417    1.327293   -0.169819
C       0.073969   -0.007890   -0.062550
N       1.201295   -0.548296    0.194727
N       1.171820   -1.930526    0.271420
C       0.093180   -2.777968    0.105612
N       0.118440   -4.052289    0.185937
C      -1.208293   -2.081290   -0.195581
N      -2.278190   -2.741066   -0.370199
N      -1.099648   -0.687171   -0.256500
H       0.808358    1.711345   -0.018531
H       2.071645   -2.332979    0.474288
H       1.060591   -4.390507    0.394269
H      -3.072012   -2.127309   -0.565193
H      -1.927852   -0.144697   -0.453347
