17

C       0.012194   -1.097874    0.530547
C       0.037046    0.076738    0.274151
C       0.064664    1.491019   -0.062152
O      -0.432925    2.355275    0.990477
C       0.837875    3.063510    1.071692
C       1.667937    2.701066    2.270795
C       2.653655    1.863210    1.948832
C       2.683948    1.509404    0.478190
C       1.444353    2.227603   -0.082648
H      -0.019829   -2.133443    0.764351
H      -0.512641    1.651915   -0.981994
H       0.681577    4.139105    0.935316
H       1.456709    3.079005    3.264241
H       3.376187    1.456807    2.649039
H       3.606226    1.860529   -0.001612
H       2.641782    0.425327    0.319170
H       1.627354    2.744194   -1.023955
