14

N       0.008523    1.362523   -0.013185
C      -0.097433   -0.021320   -0.021555
C      -1.154733   -0.861078   -0.016241
C      -0.653751   -2.220663   -0.030386
C      -1.389783   -3.422948   -0.030729
C      -2.040981   -4.436680   -0.030699
C       0.708711   -2.079679   -0.043659
O       1.671909   -3.006553   -0.059996
O       1.085180   -0.791290   -0.038966
H       0.469772    1.732569   -0.838074
H       0.484386    1.721538    0.808281
H      -2.191024   -0.565057   -0.003614
H      -2.604466   -5.335725   -0.030832
H       2.526053   -2.557896   -0.065756
