23

C       0.512881    1.545460   -0.180301
C       0.083352    0.108767    0.093669
C       0.645900   -0.964826   -0.886987
C       1.412111   -1.640269    0.288532
C       2.872329   -1.304307    0.399567
C       3.119382   -0.401897    1.349719
C       1.871864    0.035963    2.080720
C       0.723150   -0.667471    1.313085
C      -0.317238   -1.290603    2.235142
H       1.601165    1.635858   -0.256951
H       0.087418    1.889959   -1.129794
H       0.168393    2.231820    0.601244
H      -1.010114    0.078471    0.152061
H      -0.121922   -1.598729   -1.338500
H       1.280873   -0.573387   -1.687434
H       1.214944   -2.711678    0.409756
H       3.624198   -1.755546   -0.240633
H       4.102935   -0.018258    1.601949
H       1.900781   -0.277044    3.134507
H       1.762270    1.126864    2.098476
H      -0.837595   -0.522787    2.820882
H      -1.075386   -1.842438    1.668062
H       0.146478   -1.990101    2.940349
