16

O       0.132200    1.433776    0.044040
C       0.043362    0.032465    0.079470
C       0.269092   -0.571221    1.508550
C      -1.076644   -1.299677    1.366209
C      -2.239108   -0.367546    1.195386
C      -1.349025   -0.621759    0.016025
O      -1.690845   -1.677913   -0.867082
C      -1.626982   -2.807935   -0.081242
N      -1.273185   -2.713569    1.140530
H      -0.155400    1.733837   -0.825226
H       0.699251   -0.446482   -0.659769
H       1.127303   -1.241490    1.560627
H       0.327813    0.166493    2.312803
H      -3.219704   -0.826126    1.153693
H      -2.201255    0.613238    1.658270
H      -1.906162   -3.721603   -0.593230
