25

C      -0.023134    1.583904   -0.110353
C       0.063834    0.055373   -0.013986
C       0.665858   -0.538212   -1.301054
C       0.751192   -2.064937   -1.220499
C       1.478820   -2.468395    0.060000
O       0.869032   -1.903101    1.206537
C       0.804655   -0.464782    1.253607
C       2.216861    0.126123    1.419069
C      -0.013753   -0.194899    2.519834
H       0.964380    2.037197   -0.246354
H      -0.633904    1.871461   -0.972834
H      -0.479082    2.031285    0.777388
H      -0.959756   -0.336464    0.070325
H       0.057387   -0.229233   -2.159167
H       1.667260   -0.119977   -1.472561
H      -0.259056   -2.492456   -1.204822
H       1.268869   -2.479857   -2.093226
H       1.444182   -3.551694    0.213692
H       2.541231   -2.182619   -0.006166
H       2.831074    0.023242    0.520807
H       2.166702    1.190696    1.662921
H       2.727355   -0.387821    2.238618
H       0.486780   -0.640626    3.384185
H      -0.130602    0.875780    2.705463
H      -1.005306   -0.648170    2.432919
