16

O      -0.744280    0.807097    0.758385
C       0.031525    0.954254   -0.149882
C       1.298556    1.786536   -0.052016
C       1.437930    2.789358   -1.192453
C       2.705501    3.668532   -1.132360
N       3.000549    3.775563   -2.547177
C       2.461373    2.721351   -3.254616
O       2.697313    2.379792   -4.377234
O       1.550879    2.089840   -2.443690
H      -0.131503    0.473964   -1.137734
H       1.302460    2.300972    0.913769
H       2.157877    1.103158   -0.088677
H       0.547189    3.428362   -1.248607
H       2.504878    4.639976   -0.672917
H       3.509399    3.173916   -0.567831
H       3.866331    4.160794   -2.887848
