17

C       0.012356    1.524498    0.027404
C       0.002097    0.021243   -0.005914
C      -0.051404   -0.714094   -1.191976
N      -0.062309   -2.045816   -1.260460
C      -0.018639   -2.715592   -0.108167
C       0.037390   -2.122831    1.155093
C       0.085743   -2.915765    2.431771
C       0.045959   -0.732943    1.160781
F       0.098557   -0.094778    2.337702
H       0.913988    1.907320    0.516984
H      -0.025402    1.932095   -0.985707
H      -0.843143    1.917791    0.586569
H      -0.087464   -0.181246   -2.140517
H      -0.028211   -3.801733   -0.180024
H       0.992296   -2.695306    3.005174
H      -0.764565   -2.680926    3.080616
H       0.067969   -3.987571    2.219945
