21

O      -0.018005    1.418689    0.302003
C       0.032425    0.028557    0.022783
C      -1.385175   -0.519717    0.119284
C      -1.448246   -2.034284   -0.151484
C      -2.835462   -2.597407   -0.091807
C      -3.547349   -3.160193   -1.065156
C      -4.887452   -3.597153   -0.550419
O      -4.891500   -3.238944    0.829811
C      -3.659890   -2.615736    1.174163
H       0.873889    1.771982    0.236943
H       0.436847   -0.162577   -0.985210
H       0.684275   -0.499886    0.738457
H      -1.775394   -0.291045    1.117332
H      -2.020330    0.013408   -0.596911
H      -1.015795   -2.248573   -1.135874
H      -0.815603   -2.550934    0.585388
H      -3.231030   -3.304589   -2.091183
H      -5.723884   -3.099280   -1.067494
H      -5.047231   -4.682681   -0.654965
H      -3.162254   -3.182137    1.979535
H      -3.852323   -1.604759    1.567331
