19

O      -0.487129    0.624455    0.847070
C       0.079715    0.960504   -0.161738
C       1.373760    1.746351   -0.191630
C       1.362710    2.867269   -1.232076
C       2.587887    3.784512   -1.140320
C       2.686199    4.644195   -2.373362
C       1.995879    4.363862   -3.475538
C       1.118114    3.148041   -3.574897
O       1.310434    2.236628   -2.507475
H      -0.323042    0.703889   -1.165012
H       1.574384    2.134134    0.810975
H       2.182656    1.052749   -0.461225
H       0.457957    3.486315   -1.098790
H       2.509977    4.411451   -0.243074
H       3.498346    3.181003   -1.016143
H       3.335119    5.514677   -2.333503
H       2.040730    5.004999   -4.351657
H       0.056573    3.450917   -3.637573
H       1.339443    2.587900   -4.491159
