17

N      -0.035039    1.492483    0.135209
C       0.024853    0.043728   -0.043910
C      -1.399331   -0.518153   -0.062547
N      -2.156571   -0.055163   -1.230623
C      -2.559393   -1.107743   -1.839925
N      -3.379180   -1.132547   -2.943909
N      -2.159768   -2.319905   -1.272168
C      -1.418487   -2.053026   -0.123810
O      -0.926728   -2.867621    0.616178
H       0.897492    1.888491    0.072379
H      -0.575468    1.887485   -0.629585
H       0.536369   -0.282195   -0.966810
H       0.557905   -0.406162    0.800902
H      -1.896518   -0.193963    0.861282
H      -3.483100   -0.217843   -3.361245
H      -3.186440   -1.855044   -3.623066
H      -2.459089   -3.242508   -1.543967
