15

O       0.107238    1.344871    0.236165
C       0.075177   -0.008055    0.030176
C       0.064135   -0.739801   -1.134175
N       0.029107   -2.068490   -0.768055
C       0.017866   -2.194951    0.596141
C       0.046172   -0.919382    1.121530
N       0.048301   -0.504373    2.459175
C       0.022618   -1.324587    3.542823
O      -0.006457   -2.538353    3.502262
H       0.123415    1.796837   -0.612099
H       0.077834   -0.432281   -2.166462
H       0.014264   -2.838546   -1.410894
H      -0.008408   -3.145035    1.095888
H       0.071876    0.492381    2.611993
H       0.031280   -0.748307    4.488143
