14

C      -0.032426    1.410551    0.010156
O      -0.032398   -0.028261    0.002268
C      -1.229062   -0.598940    0.010634
O      -2.292232   -0.027635    0.023917
C      -1.124999   -2.140497    0.001199
O      -0.077318   -2.719635   -0.011999
C      -2.498759   -2.816924    0.010513
C      -2.419622   -4.270732    0.002062
N      -2.377055   -5.424164   -0.004446
H       1.016282    1.702910    0.002329
H      -0.549107    1.793475   -0.872959
H      -0.533154    1.783742    0.906522
H      -3.056263   -2.466264    0.886850
H      -3.072521   -2.457077   -0.851497
