13

O       0.013580   -0.068042    0.003769
C      -0.008800    1.151436    0.009591
C      -1.242234    1.943647    0.030011
C      -1.232179    3.293313    0.036453
N      -0.048688    3.993548    0.024129
C       1.147085    3.349323    0.005160
C       1.218390    1.986715   -0.002417
C       2.495477    1.356268   -0.022310
N       3.542849    0.863076   -0.038519
H      -2.179984    1.402665    0.039908
H      -2.130276    3.898511    0.051377
H      -0.065806    4.999860    0.029258
H       2.029735    3.976627   -0.003437
