17

C      -0.177809    1.519124    0.002651
C       0.031409    0.007506    0.003044
C       0.815997   -0.444361   -1.225905
O       1.142732   -1.846115   -1.221194
C       1.289962   -2.545273   -0.071081
O       1.669675   -3.683538   -0.116570
C       0.887652   -1.869009    1.240887
N       0.707472   -0.422058    1.227969
H       0.782937    2.047391    0.015541
H      -0.726337    1.843939   -0.886433
H      -0.739984    1.818304    0.890177
H      -0.948460   -0.490719   -0.008101
H       0.256556   -0.279684   -2.152239
H       1.755849    0.122028   -1.293633
H      -0.055334   -2.347465    1.541095
H       1.625857   -2.154762    1.993433
H       1.613212    0.036984    1.284272
