19

O      -0.109905    1.384237    0.045323
C      -0.070582   -0.006736    0.006557
C      -0.497428   -0.768174   -1.219889
C      -1.338658   -0.815213    0.045642
C      -1.056433   -1.949960    0.983062
C      -1.906803   -2.228889    2.194106
C      -1.799080   -3.240656    1.060933
O       0.352437   -2.036318    1.108967
C       0.885809   -0.724431    0.951994
H       0.581122    1.719387   -0.536020
H      -0.899850   -0.173082   -2.032321
H       0.054518   -1.655211   -1.514509
H      -2.306262   -0.329906    0.059160
H      -1.384267   -2.461256    3.115167
H      -2.837743   -1.685361    2.319156
H      -2.653323   -3.384066    0.408224
H      -1.211325   -4.132897    1.245797
H       1.909103   -0.832073    0.575755
H       0.912833   -0.172626    1.904412
