16

C       0.003019    1.406347    0.005055
C       1.441347    1.963924    0.015484
C       2.193531    1.235202   -1.047681
C       1.719129    0.097390   -1.598012
C       0.449604   -0.588874   -1.228845
O      -0.028082   -0.018970   -0.019704
O       2.597355   -0.323554   -2.554016
C       3.583998    0.614234   -2.514304
N       3.408251    1.557940   -1.648804
H      -0.538017    1.694629    0.909548
H      -0.540503    1.810614   -0.863677
H       1.423340    3.043307   -0.172783
H       1.903887    1.816036    0.999058
H      -0.302796   -0.500202   -2.032048
H       0.598298   -1.656620   -1.033716
H       4.403616    0.475994   -3.201384
