22

C       0.870042   -0.461944   -1.292408
C       0.072483    0.039069   -0.081330
C      -0.070955    1.568729   -0.111404
C      -1.310396   -0.607745    0.019674
O      -2.080450   -0.498451   -1.206677
C      -2.302500   -1.926574   -1.276082
C      -1.472319   -2.131581   -0.016685
C      -0.545861   -3.203723    0.396048
N      -1.843708   -3.014329    1.078419
H       1.855252    0.012984   -1.327563
H       1.020879   -1.544760   -1.262344
H       0.341741   -0.219618   -2.218815
H       0.609222   -0.238600    0.838952
H      -0.653800    1.878887   -0.984783
H      -0.581116    1.941768    0.783015
H       0.908432    2.053799   -0.168178
H      -1.863286   -0.152600    0.857536
H      -3.361774   -2.189663   -1.170198
H      -1.905031   -2.357421   -2.203042
H      -0.467875   -4.115495   -0.190838
H       0.366832   -2.922757    0.916278
H      -1.707779   -2.546491    1.972527
