25

C      -0.254550    1.706184    0.347207
C      -0.003873    0.199990    0.221313
C      -1.285843   -0.589048   -0.013697
O      -1.851531   -0.190327   -1.267314
C      -2.680246   -1.236723   -1.765842
C      -2.547335   -2.424963   -0.789076
C      -2.721625   -3.792482   -1.446332
C      -1.191354   -2.126642   -0.097969
C       0.032288   -2.629863   -0.872085
H       0.681720    2.250938    0.502444
H      -0.730760    2.091073   -0.558149
H      -0.914639    1.927861    1.193431
H       0.689678    0.010955   -0.604685
H       0.471989   -0.179098    1.134974
H      -1.995529   -0.338191    0.796747
H      -3.718883   -0.889115   -1.849164
H      -2.338098   -1.504945   -2.775490
H      -3.323568   -2.317068   -0.020790
H      -2.002773   -3.948422   -2.256615
H      -2.594818   -4.603325   -0.721280
H      -3.725031   -3.890135   -1.875098
H      -1.176827   -2.557882    0.909518
H       0.081074   -2.200710   -1.878145
H       0.958777   -2.366167   -0.354129
H       0.013652   -3.718948   -0.971577
