15

N      -0.035585    1.428896   -0.143064
C      -0.031401    0.031687   -0.057447
C      -1.202128   -0.721920    0.020494
C      -1.178051   -2.116846    0.044329
C       0.044323   -2.760269   -0.012282
F       0.097465   -4.100841    0.008490
C       1.235640   -2.047683   -0.088042
C       1.194092   -0.659454   -0.108855
O       2.319581    0.118934   -0.171711
H       0.843556    1.844666    0.131084
H      -0.814633    1.866786    0.327501
H      -2.155438   -0.203868    0.059675
H      -2.091080   -2.695756    0.105623
H       2.179662   -2.581760   -0.125858
H       3.098148   -0.446072   -0.174178
