25

C       0.036842    1.638877    0.252039
C      -0.024357    0.116339    0.103486
C       0.765817   -0.399300   -1.107007
C       0.744668   -1.920199   -1.246960
C      -0.476572   -2.612229   -1.928218
C      -1.713718   -1.841152   -2.346098
O       0.330519   -2.986277   -3.068492
C       1.547912   -2.561072   -2.415524
C       2.421441   -1.714357   -3.320643
H       1.070507    1.983956    0.367250
H      -0.381314    2.140455   -0.627801
H      -0.526503    1.978161    1.126905
H       0.367064   -0.357299    1.013658
H      -1.071205   -0.200960    0.024747
H       0.391071    0.081334   -2.018736
H       1.810461   -0.073751   -1.007582
H       0.989592   -2.363548   -0.276683
H      -0.785516   -3.511521   -1.373446
H      -1.460029   -0.909405   -2.858379
H      -2.299351   -2.454614   -3.038608
H      -2.346165   -1.610833   -1.482659
H       2.121209   -3.438123   -2.077682
H       1.898101   -0.818669   -3.664775
H       3.337966   -1.410340   -2.803464
H       2.708827   -2.298387   -4.200882
