20

C      -0.054968    1.504297   -0.022128
C      -0.007448   -0.011986   -0.026214
C      -1.231588   -0.690402   -0.610904
C       1.336396   -0.668888   -0.210604
C       0.681724   -0.679696    1.146714
C       1.149305   -0.109466    2.482385
O       0.664185   -1.324345    3.142811
C       0.250476   -1.865974    1.937273
N      -0.281217   -2.973360    1.677750
H       0.851781    1.941661    0.407819
H      -0.154831    1.886467   -1.044338
H      -0.912338    1.871597    0.553277
H      -1.334239   -0.440745   -1.673256
H      -1.173894   -1.776149   -0.507572
H      -2.142088   -0.356603   -0.100494
H       1.382044   -1.620079   -0.731019
H       2.209479   -0.035738   -0.337304
H       2.228537    0.002269    2.619154
H       0.622076    0.772856    2.855429
H      -0.416553   -3.531960    2.521209
