17

O       0.082781    0.012225   -0.199088
C       0.022781    1.177397    0.053594
C      -1.100984    2.235571    0.052559
C      -1.375787    2.819195    1.444978
C      -0.069494    3.154808    2.151803
N       0.799576    2.016383    2.498876
C       1.198777    2.928100    1.408650
C       1.016541    2.360547    0.012493
N      -0.103667    3.140221   -0.646469
H      -2.016961    2.013585   -0.499525
H      -1.961071    3.736402    1.318908
H      -1.969518    2.116696    2.040560
H      -0.104471    3.987647    2.848770
H       1.325291    2.214120    3.345687
H       2.033685    3.604175    1.567398
H       1.940188    2.259129   -0.559791
H      -0.108076    2.904949   -1.637820
