19

C       0.374662    1.101868    0.300712
O      -0.300971   -0.033630    0.835822
C      -1.447704   -0.482926    0.221858
C      -1.393346   -1.980035    0.073603
C      -2.686794   -2.605287   -0.425697
O      -2.468417   -4.009349   -0.492447
N      -2.455388    0.183396   -0.148686
C      -2.597342    1.602642    0.123087
H       1.431954    0.974221    0.545699
H       0.264124    1.149574   -0.787862
H       0.020986    2.041292    0.735836
H      -0.569437   -2.243213   -0.601784
H      -1.121666   -2.411489    1.044702
H      -3.508302   -2.353094    0.259639
H      -2.947078   -2.185969   -1.406985
H      -3.275131   -4.418304   -0.817824
H      -2.165762    1.905586    1.085458
H      -2.141726    2.215599   -0.664506
H      -3.663975    1.845410    0.138536
