16

C      -0.063854    1.569379   -0.000111
C       0.061753    0.049166    0.007235
C       0.803982   -0.534148   -1.219916
C       1.488891   -1.801126   -0.686425
C       1.659638   -1.536240    0.813994
O       2.329551   -2.164530    1.603250
N       0.883461   -0.443585    1.104953
H       0.924314    2.037748   -0.047071
H      -0.646632    1.897509   -0.866868
H      -0.573441    1.933092    0.898567
H      -0.949381   -0.385982    0.064407
H       0.125129   -0.716577   -2.055749
H       1.557403    0.187688   -1.553729
H       0.856547   -2.690025   -0.796757
H       2.450580   -2.027630   -1.149692
H       0.726713   -0.184060    2.066656
