16

O       0.121644    1.460309   -0.028334
C       0.083595    0.057210   -0.031873
C       0.235021   -0.616802    1.359886
N      -1.240998   -0.703725    1.421751
C      -1.827099   -1.857290    2.069144
C      -3.293349   -1.803965    2.034844
N      -4.446920   -1.770196    1.991469
C      -1.335413   -0.573005   -0.050793
H      -0.501677    1.770192    0.639006
H       0.774401   -0.269390   -0.809056
H       0.730162   -1.599616    1.294827
H       0.701148   -0.025569    2.154758
H      -1.509980   -2.816523    1.614450
H      -1.506805   -1.880233    3.117586
H      -2.158079    0.051372   -0.411304
H      -1.355361   -1.542600   -0.574063
