21

C      -0.255103    1.632123   -0.136310
C      -0.071129    0.116864    0.003643
C       0.739572   -0.491059   -1.143799
C       2.266771   -0.148842   -1.158612
C       2.862130   -1.562612   -1.294412
O       2.788986   -2.212451   -0.024473
C       1.415223   -2.623729    0.082559
C       0.813393   -2.039515   -1.207698
O       1.921641   -2.244055   -2.103671
H       0.709128    2.150966   -0.144973
H      -0.773776    1.882153   -1.068440
H      -0.843318    2.037705    0.692411
H       0.416166   -0.099164    0.962159
H      -1.058566   -0.362641    0.044574
H       0.293631   -0.163522   -2.089424
H       2.543975    0.485577   -2.004216
H       2.607146    0.328671   -0.236522
H       3.870465   -1.657750   -1.696332
H       1.355600   -3.718384    0.095336
H       0.971386   -2.231035    1.001982
H      -0.076729   -2.543082   -1.583394
