18

C      -0.062688    1.624887    0.158343
C       1.495686    1.595933    0.141067
N       1.500931    0.098904    0.022924
C      -0.007903    0.084437   -0.022149
C       0.014459   -0.655392   -1.398916
C       0.065502    0.097092   -2.749979
O       0.683426    1.368701   -2.565190
C       1.541324    0.233241   -2.672513
C       1.564004   -0.548705   -1.323654
H      -0.494408    1.921661    1.117507
H      -0.534735    2.195684   -0.638176
H       1.968498    2.125729   -0.686717
H       1.968728    1.910948    1.076622
H      -0.502666   -0.500813    0.760615
H      -0.477125   -1.627173   -1.443766
H      -0.591851   -0.003423   -3.606412
H       2.297997    0.266857   -3.448807
H       2.204543   -1.433601   -1.364094
