16

O       0.042029    0.074063    0.026892
C       0.030960    1.272794    0.045625
C      -1.179755    2.242119    0.099540
C      -0.371494    3.555229    0.008795
N       0.685306    3.272420   -1.026908
C       1.203981    2.264067   -0.030360
C       0.752999    3.296519    1.019102
C       1.504478    4.167417    1.903559
O       0.634285    3.119097    2.400758
H      -1.862308    2.099389   -0.743472
H      -1.740968    2.111798    1.029803
H      -0.905667    4.502155   -0.059141
H       0.304968    2.828872   -1.864709
H       2.215130    1.877451   -0.133950
H       2.567106    3.996896    2.062813
H       1.156279    5.181282    2.091010
