17

O       0.016727    1.522129    0.007397
C       0.021684    0.130757   -0.019459
C       0.157166   -0.618459    1.301567
O      -0.972398    0.002941    2.041975
C      -2.103164   -0.015657    1.095337
C      -1.344304   -0.707562   -0.012486
O      -1.654137   -1.474603   -1.164607
C      -0.596802   -2.412416   -0.746334
C      -0.577358   -1.829778    0.702723
H      -0.270826    1.775673    0.894475
H       0.683816   -0.198204   -0.819172
H       1.018653   -0.618246    1.967661
H      -2.931220   -0.594232    1.511619
H      -2.419434    1.011060    0.887309
H      -0.957248   -3.441824   -0.802016
H       0.303771   -2.301048   -1.356127
H      -1.102175   -2.451013    1.427254
