21

O      -0.220363    1.544827   -0.098008
C      -0.005301    0.140368   -0.004821
C      -1.422087   -0.470348    0.105405
O      -1.466908   -1.868887   -0.037598
C      -0.798734   -2.638808    0.950266
C       0.448564   -3.343841    0.404281
C       1.645118   -2.426696    0.063251
C       1.449606   -1.547332   -1.150790
C       0.749262   -0.413793   -1.178439
H       0.640945    1.971907   -0.134374
H       0.539542   -0.093245    0.923899
H      -1.865498   -0.144879    1.059279
H      -2.031708   -0.061545   -0.706267
H      -0.541690   -2.020548    1.823232
H      -1.506224   -3.403433    1.298086
H       0.770286   -4.072772    1.160029
H       0.156019   -3.916226   -0.483531
H       1.869526   -1.809870    0.944399
H       2.525500   -3.058424   -0.095912
H       1.906516   -1.897435   -2.073963
H       0.630430    0.140152   -2.107491
