27

C       0.037349    1.576967   -0.112148
C       0.068536    0.050338    0.047669
C       0.871151   -0.337843    1.297886
C      -1.364304   -0.519436    0.052470
C      -1.477950   -2.038783   -0.054568
C      -1.244094   -2.963660    1.176669
C      -2.403876   -3.865274    0.680398
C      -2.892436   -2.697341   -0.226374
C      -4.069580   -1.922029    0.362213
H       1.049813    1.992827   -0.151596
H      -0.484237    1.873678   -1.028262
H      -0.480549    2.048340    0.732110
H       0.586601   -0.367163   -0.828533
H       1.876513    0.095780    1.265410
H       0.381193    0.034361    2.206026
H       0.979714   -1.420453    1.398273
H      -1.885051   -0.166033    0.953568
H      -1.904230   -0.079242   -0.797878
H      -0.840856   -2.380035   -0.880695
H      -0.260310   -3.426956    1.285797
H      -1.487248   -2.458577    2.116754
H      -2.042314   -4.718200    0.099181
H      -3.110705   -4.233371    1.429710
H      -3.132812   -2.978738   -1.257077
H      -3.895447   -1.646083    1.408138
H      -4.270589   -1.000991   -0.195006
H      -4.978612   -2.532926    0.332539
