23

C       0.149454    1.365417    0.360279
C      -0.136845   -0.078715   -0.068006
C      -1.644175   -0.308357   -0.269256
C       0.638815   -0.510936   -1.316279
C       0.688050    0.345537   -2.509818
O       1.822847    0.249935   -1.641027
C       0.903994   -2.017638   -1.398294
C       1.377341   -2.525557   -2.758790
O       1.844445   -2.350864   -0.378472
H       1.219541    1.537392    0.489633
H      -0.221365    2.090705   -0.372813
H      -0.354651    1.578033    1.308211
H       0.206646   -0.739162    0.737596
H      -2.039193    0.346603   -1.054302
H      -1.872728   -1.341175   -0.550644
H      -2.191842   -0.090945    0.653079
H       0.820893   -0.085548   -3.498953
H       0.181875    1.309426   -2.497562
H      -0.011723   -2.549662   -1.117208
H       2.253642   -1.963076   -3.097819
H       1.659108   -3.577193   -2.666513
H       0.593615   -2.443505   -3.518333
H       2.617591   -1.794013   -0.534907
