15

N       0.057325    1.189322    0.381761
C       0.010564   -0.024725   -0.206188
O       0.926042   -0.469013   -0.885846
C      -1.289095   -0.836198   -0.007502
C      -0.934704   -2.346491    0.157142
O      -0.372713   -2.877322   -1.009767
C      -2.131391   -0.354780    1.077999
C      -2.814167    0.023531    1.993741
H       0.896391    1.737499    0.284877
H      -0.675791    1.493126    1.000701
H      -1.835591   -0.754227   -0.957243
H      -0.276643   -2.455343    1.034227
H      -1.857121   -2.896242    0.364945
H       0.367673   -2.288159   -1.229732
H      -3.433009    0.345668    2.794914
