20

C      -0.491512    1.226581    0.361029
C       0.636616    0.254897    0.023506
C       0.491657   -0.353378   -1.368292
O      -0.501431   -0.175966   -2.059501
N       1.561650   -1.116611   -1.753938
C       1.777357   -1.814632   -2.962787
N       0.699601   -1.886653   -3.798419
N       2.938120   -2.330002   -3.103740
C       3.183827   -3.082003   -4.317104
H      -0.501856    2.071440   -0.332190
H      -1.462880    0.732812    0.288278
H      -0.369971    1.613575    1.376372
H       1.614372    0.748322    0.092175
H       0.666683   -0.570551    0.747054
H       2.364781   -1.177946   -1.145570
H      -0.070380   -1.259362   -3.596311
H       0.880667   -2.136664   -4.755088
H       4.193222   -3.500121   -4.285195
H       2.480805   -3.920495   -4.448857
H       3.122589   -2.459241   -5.226386
