20

C      -0.010887    1.436407    0.030133
N       0.101737   -0.002257    0.008275
C       0.056815   -0.769954   -1.144919
C       0.018620   -2.094657   -0.777065
N       0.036374   -3.249465   -1.581623
C       0.040124   -2.132861    0.648503
N      -0.025011   -3.355070    1.376137
C       0.092123   -0.828241    1.110090
C       0.116465   -0.313018    2.510097
H       0.641375    1.865766    0.796293
H       0.300926    1.833498   -0.938649
H      -1.038030    1.773582    0.225949
H       0.055562   -0.302403   -2.116400
H      -0.460182   -3.124217   -2.455009
H      -0.379178   -4.021815   -1.070399
H       0.887935   -3.790165    1.476793
H      -0.403179   -3.222169    2.306552
H       0.955665    0.370888    2.689507
H      -0.800568    0.221344    2.793037
H       0.232896   -1.149417    3.205425
