18

O      -0.071347   -0.082615    0.119842
C      -0.005194    1.119790    0.144870
C       1.274744    1.927689    0.053370
C       2.549502    1.075511   -0.035878
C       2.837470    1.049074   -1.576285
C       2.232289    2.362132   -2.072161
C       1.338133    2.788783   -1.190491
C       0.788806    3.967490   -0.422252
N       1.179332    3.218212    0.827881
H      -0.926105    1.742945    0.244978
H       3.358095    1.596918    0.483000
H       2.429955    0.077613    0.390157
H       3.909171    0.997382   -1.794364
H       2.378948    0.172161   -2.050833
H       2.582603    2.883900   -2.955120
H       1.295252    4.928749   -0.551454
H      -0.293881    4.119773   -0.527814
H       0.455424    3.216609    1.544264
