20

C       0.217981    1.642451   -0.019696
C       0.098824    0.118769   -0.026673
C       0.750321   -0.601834   -1.188466
N       2.228536   -0.541756   -1.123449
C       1.529435   -1.782506   -0.715002
C       1.693526   -3.042406   -1.523136
C       1.423121   -1.856914    0.797044
C       0.761308   -0.532518    1.206938
O       0.748929   -0.070958    2.317262
H       1.259182    1.935776   -0.179173
H      -0.394735    2.092874   -0.806352
H      -0.106532    2.036792    0.946638
H      -0.963782   -0.167506    0.016472
H       0.269834   -0.609422   -2.162465
H       2.616889   -0.660741   -2.056228
H       1.647702   -2.830459   -2.596940
H       2.656227   -3.523819   -1.315520
H       0.905492   -3.767137   -1.290724
H       0.775172   -2.685951    1.111559
H       2.383834   -1.973413    1.305493
