16

O       0.068931   -0.028110   -0.235039
C       0.011257    1.173304   -0.072182
N      -1.072908    2.020293   -0.039426
N      -0.750161    3.339980    0.169856
C       0.543525    3.326674    0.269735
N       1.075410    2.069683    0.136385
C       2.437714    1.627644    0.182065
C       3.550732    2.466875   -0.380345
C       3.433073    2.258761    1.115001
H      -2.032232    1.744914   -0.153233
H       1.136263    4.211479    0.439630
H       2.465163    0.554786    0.034905
H       4.343864    1.963265   -0.921054
H       3.295497    3.445165   -0.773787
H       3.099700    3.098765    1.715205
H       4.144403    1.610449    1.613751
