18

C       0.013044    1.512782    0.100130
C      -0.014812    0.023156    0.009878
C       0.808299   -1.005793   -0.818413
C       0.676028   -2.019909    0.258302
C      -0.146941   -1.037541    1.122699
C      -1.147178   -0.977090   -0.010185
C      -2.632344   -0.914079   -0.090949
O      -3.231659   -2.150737    0.263326
N      -0.343119   -1.978687   -0.849227
H       0.990034    1.873799    0.441796
H      -0.196414    1.979467   -0.869481
H      -0.738391    1.872429    0.811221
H       1.506498   -0.910455   -1.642485
H       1.249881   -2.911500    0.481220
H      -0.274899   -0.896707    2.186865
H      -3.018020   -0.161876    0.606046
H      -2.929671   -0.607487   -1.107429
H      -2.807318   -2.825589   -0.279553
