19

C      -0.139050    1.449180   -0.259551
C      -0.007705   -0.034743   -0.015880
C      -1.269478   -0.899528    0.192220
O      -0.696191   -1.559188    1.343468
C       0.486696   -0.737791    1.293775
C       1.652892   -1.411284    0.530816
C       1.101819   -0.800045   -0.765653
C       1.132352   -1.274554   -2.149660
O       1.939900   -0.167937   -1.717741
H       0.833256    1.947452   -0.209133
H      -0.551066    1.644958   -1.256274
H      -0.805446    1.910493    0.476482
H      -2.163822   -0.324267    0.467327
H      -1.528495   -1.602675   -0.609435
H       0.694266   -0.237912    2.243150
H       2.632091   -0.992375    0.782572
H       1.687594   -2.500374    0.604134
H       1.681084   -2.181643   -2.399503
H       0.321773   -1.019593   -2.831906
