21

C       0.044753    1.521648    0.253458
C      -0.185698    0.064776    0.614192
O       1.082160   -0.579721    0.709382
C       1.007465   -1.972420    0.984550
C       2.325448   -2.635106    0.682188
C       2.712997   -3.443588    1.665700
C       1.732988   -3.463593    2.812109
C       0.790970   -2.269480    2.512684
O       1.149944   -1.138700    3.283238
H       0.587692    1.602572   -0.692406
H      -0.912045    2.042467    0.152268
H       0.629544    2.025509    1.028609
H      -0.724950   -0.018364    1.568468
H      -0.791729   -0.436439   -0.156669
H       0.193815   -2.409654    0.383220
H       2.843509   -2.461317   -0.253339
H       3.612528   -4.049712    1.653252
H       1.181215   -4.413154    2.840939
H       2.203249   -3.335741    3.792494
H      -0.253204   -2.518895    2.735431
H       1.491470   -0.487864    2.654005
