18

C      -0.092632    1.529038   -0.052189
C      -0.045968    0.025211    0.067342
N       1.281784   -0.610731   -0.102795
C       0.617316   -0.669091    1.194345
C       1.293596   -0.191127    2.484341
N       0.948909   -1.486601    3.185740
C      -0.521457   -1.571250    3.169140
C       0.208170   -1.922156    1.931488
H       0.788790    1.979074    0.412505
H      -0.112314    1.837198   -1.102953
H      -0.986864    1.932430    0.435509
H      -0.897171   -0.497689   -0.369216
H       1.195006   -1.500874   -0.588666
H       2.375736   -0.094688    2.378213
H       0.888319    0.696522    2.982106
H      -0.905912   -2.383463    3.779134
H      -1.107237   -0.654626    3.207642
H       0.275197   -2.936332    1.546788
