19

N       0.001639   -1.179355   -0.032827
C      -0.006567   -0.023489   -0.012839
C      -0.007363    1.439747    0.027618
C      -0.763022    1.962341    1.272401
C      -0.756500    3.496316    1.310495
C       0.670191    4.059608    1.249604
C       1.426124    3.532975    0.021730
C       1.434103    1.999243   -0.024987
H      -0.542279    1.785081   -0.868422
H      -1.787348    1.577271    1.270985
H      -0.275716    1.563441    2.170641
H      -1.336731    3.881565    0.460610
H      -1.266401    3.842005    2.215989
H       0.644350    5.154495    1.236981
H       1.212688    3.770492    2.160149
H       0.952554    3.920036   -0.891125
H       2.456347    3.904518    0.017842
H       1.995280    1.601494    0.829599
H       1.936771    1.639865   -0.928146
