10

O      -0.042628   -0.091488    0.003311
C       0.037815    1.118351    0.008732
N      -1.123167    1.922179    0.028232
N      -1.225254    3.256586    0.036666
N      -0.157038    3.953342    0.026340
C       1.061991    3.302687    0.006858
C       1.217580    1.957111   -0.002340
H      -2.015579    1.442042    0.037390
H       1.913029    3.975412   -0.000758
H       2.189831    1.480442   -0.017663
