16

C      -0.124156    1.456645    0.008262
N       0.078610    0.020983   -0.018168
C       0.726255   -0.600817   -1.028787
N       1.156886    0.042799   -2.054643
C       1.733981   -0.674857   -3.085917
N       1.635543   -2.001415   -3.276268
N       2.346607   -2.200723   -4.382707
N       2.891649   -1.131823   -4.944884
C       2.514300   -0.143345   -4.135919
H       0.823221    1.999679    0.109430
H      -0.594113    1.781946   -0.923472
H      -0.774354    1.708369    0.848264
H      -0.116456   -0.511088    0.811062
H       0.834681   -1.682071   -0.900391
H       2.435059   -3.114997   -4.793975
H       2.804335    0.878447   -4.317485
