21

C      -0.984098    0.735992    0.157374
C       0.440319    0.787296   -0.349629
O       1.242867    1.622454   -0.000590
C       0.824907   -0.282906   -1.371242
C       2.262248   -0.817478   -1.312973
C       1.601262   -2.185021   -0.989803
C       1.753006   -3.254563   -2.061288
C       1.856358   -2.724908    0.409951
O       0.265100   -1.578300   -1.068874
H      -1.185575   -0.249455    0.586399
H      -1.147638    1.523360    0.893709
H      -1.682719    0.858392   -0.678922
H       0.496567    0.073303   -2.360517
H       2.814854   -0.781296   -2.252511
H       2.866350   -0.378679   -0.518116
H       2.772275   -3.655831   -2.064940
H       1.059818   -4.081406   -1.876357
H       1.539388   -2.844961   -3.052639
H       1.728836   -1.939472    1.160246
H       1.158435   -3.536671    0.639467
H       2.876244   -3.115988    0.492032
