19

C       0.051754    1.489014    0.127719
C       0.010019   -0.036958    0.013378
C       0.657749   -0.559258   -1.264800
O       2.027004   -0.140054   -1.292553
C       2.826725   -1.102857   -1.967537
C       2.079363   -2.414327   -1.846481
N       1.661645   -2.692845   -0.456226
C       0.711671   -2.071098   -1.404501
H       1.084287    1.846491    0.110617
H      -0.481986    1.964983   -0.703083
H      -0.413479    1.826294    1.059007
H       0.525693   -0.500483    0.860476
H      -1.030408   -0.386855    0.035114
H       0.123866   -0.154778   -2.144274
H       2.953867   -0.848161   -3.032721
H       3.811582   -1.110058   -1.488787
H       2.291353   -3.231443   -2.527645
H       1.440254   -3.682184   -0.370571
H      -0.167061   -2.616128   -1.732511
