15

C       0.039129    1.496311    0.002355
C      -0.070195    0.017386    0.074460
C      -1.136979   -0.847429    0.077341
C      -0.513455   -2.126846    0.172983
N       0.788851   -2.049360    0.218148
O       1.069907   -0.679809    0.150836
C      -2.567624   -0.477068    0.007026
N      -3.439410   -1.527655   -0.131171
O      -2.960345    0.674644    0.095189
H       0.596824    1.796890   -0.890846
H      -0.962346    1.923503   -0.022604
H       0.580836    1.880109    0.872950
H      -0.971028   -3.105345    0.228997
H      -3.127958   -2.418097   -0.480293
H      -4.400559   -1.278710   -0.306022
