11

O       0.012670    0.210502   -0.666313
N      -0.030461    1.222757    0.007023
O       0.863084    1.711030    0.672662
C      -1.340690    1.955674    0.017808
N      -1.261603    3.265787   -0.094037
C      -2.460087    3.858018   -0.098274
N      -3.631803    3.237272    0.036529
C      -3.545936    1.913062    0.161034
N      -2.414239    1.201836    0.137729
H      -2.474405    4.937846   -0.217810
H      -4.472042    1.359278    0.288216
