16

C       0.060316    1.454506   -0.405663
N       0.044039    0.020012   -0.125216
C      -1.040703   -0.463637    0.768415
C      -0.158527   -1.632942    1.284308
O      -0.402191   -1.385590    2.692612
C      -0.337329   -0.035697    2.135862
C      -0.507970    1.085134    3.000382
C      -0.650653    2.037849    3.721230
C       0.794004   -0.423758    1.078851
H       1.025976    1.720140   -0.847335
H      -0.716665    1.682258   -1.142253
H      -0.103278    2.088362    0.479584
H      -2.101496   -0.445243    0.515846
H      -0.075732   -2.655776    0.926377
H      -0.776751    2.878485    4.358335
H       1.877077   -0.358763    1.189028
