19

C       0.090660    1.376952    0.146378
O      -0.104821   -0.011993   -0.088341
C       0.607294   -0.519690   -1.155280
C       0.705274   -2.069341   -1.324242
C       1.950945   -1.743716   -2.214011
C       1.295326   -0.978305   -3.389181
C       0.291567   -0.063047   -2.604378
C       2.158659   -0.600502   -1.206192
O       3.070020   -0.126632   -0.592450
H       1.153082    1.613094    0.273405
H      -0.320811    1.989639   -0.667703
H      -0.444959    1.614337    1.067679
H       0.951768   -2.574698   -0.389496
H      -0.136770   -2.551771   -1.825994
H       2.723226   -2.476247   -2.432664
H       2.023035   -0.404848   -3.968750
H       0.783030   -1.661478   -4.071605
H      -0.753475   -0.261605   -2.857150
H       0.484270    1.000912   -2.762043
