20

C       0.737529    1.170287   -1.212659
C       0.005094   -0.086667   -0.729909
N       0.723853   -1.349099   -0.691644
C       1.925708   -1.412899   -1.047376
O       2.581415   -2.598930   -0.983905
C       3.934994   -2.578479   -1.448940
C       4.053046   -2.442135   -2.897235
C       4.135957   -2.324437   -4.092534
C       4.236120   -2.190434   -5.537915
H       1.598857    1.409841   -0.579684
H       1.091384    1.066391   -2.244016
H       0.055484    2.025302   -1.180574
H      -0.384073    0.089327    0.281952
H      -0.884993   -0.246334   -1.353153
H       2.542504   -0.585022   -1.416436
H       4.494178   -1.778157   -0.943193
H       4.357818   -3.530377   -1.115274
H       4.920161   -2.935808   -5.957775
H       3.258991   -2.334010   -6.011655
H       4.603790   -1.199323   -5.824630
