20

C      -0.022884    1.518726    0.068423
C      -0.068402   -0.008049   -0.023406
C       0.730173   -0.538367   -1.220506
N       0.728057   -1.985444   -1.310748
N       1.756811   -2.693528   -0.762859
C       1.402194   -3.962233   -0.913557
C       0.156234   -4.099714   -1.559537
C      -0.248016   -2.797306   -1.796406
N      -1.433351   -2.278753   -2.330177
H       1.004715    1.881339    0.182289
H      -0.441023    1.986384   -0.830470
H      -0.598835    1.878418    0.925864
H       0.342813   -0.458252    0.886684
H      -1.105131   -0.352197   -0.108790
H       0.337919   -0.117220   -2.155037
H       1.779337   -0.241656   -1.146830
H       2.061340   -4.744379   -0.564611
H      -0.368739   -5.002378   -1.827613
H      -1.994004   -3.006043   -2.754054
H      -1.280268   -1.542854   -3.010411
