23

C      -0.977120    0.952660   -0.004793
C       0.144538   -0.084411    0.005588
C       1.222215    0.110949   -1.091440
C       2.436044   -0.550943   -0.488379
C       2.291254   -0.757345    0.821095
C       3.287649   -1.383713    1.742763
O       4.455666   -1.739833    1.023834
C       0.959304   -0.227197    1.331321
C       1.136888    1.079773    2.128103
H      -0.595464    1.969393    0.134241
H      -1.509608    0.931463   -0.961870
H      -1.712817    0.760557    0.784176
H      -0.305134   -1.068925   -0.175499
H       0.919646   -0.329468   -2.048920
H       1.409170    1.177104   -1.292612
H       3.325173   -0.805050   -1.051490
H       3.524497   -0.683848    2.563595
H       2.827649   -2.267706    2.221526
H       5.073521   -2.141899    1.640554
H       0.468265   -0.952759    1.994967
H       1.612531    1.856008    1.519573
H       0.176062    1.465660    2.482548
H       1.768434    0.918581    3.007706
