18

C      -0.048079    1.582408   -0.051942
C       1.569466    1.621351   -0.053687
O       2.454291    1.517948    1.143475
C       1.671618    0.299693    1.450357
C       1.321255   -1.226015    1.772830
C      -0.126118   -0.543377    1.478879
C       0.423302    0.622030    2.295254
N      -0.110202    0.032216    0.039351
C       1.353810    0.146793   -0.048821
H      -0.680189    2.169103    0.614420
H      -0.318979    1.815698   -1.085153
H       2.035194    2.250238   -0.809665
H       1.712907   -1.984906    1.095175
H       1.360500   -1.561985    2.809896
H      -1.033194   -1.088740    1.734667
H       0.606283    0.360635    3.339677
H      -0.045624    1.599027    2.254590
H       1.947595   -0.581347   -0.601834
