18

O      -0.130569   -0.006433   -0.131570
C      -0.021383    1.182925    0.041391
C       1.266760    1.933156    0.000332
C       1.450427    3.146809    0.958607
C       2.170241    3.952383   -0.150510
C       3.589838    3.424379   -0.445876
N       3.062981    2.254401   -1.233507
C       2.577130    1.183707   -0.295685
C       1.684893    2.895306   -1.188142
H      -0.920158    1.818268    0.228355
H       0.475891    3.592422    1.187232
H       1.984001    2.964685    1.896658
H       1.986229    5.025368   -0.205823
H       4.154941    4.084941   -1.110803
H       4.225787    3.156328    0.405472
H       3.244178    0.976062    0.547487
H       2.393339    0.255509   -0.842563
H       1.126482    3.060614   -2.108853
