19

C      -0.015802    1.212461   -0.474176
C       1.296247    2.010429   -0.414016
O       2.343432    1.203524   -0.957750
C       3.635679    1.430895   -0.474649
O       3.849877    1.123052    0.884641
C       3.612464   -0.238908    1.256449
C       2.172091   -0.482785    1.335979
C       0.991766   -0.304619    1.179079
C      -0.274167    0.267122    0.739678
H      -0.858844    1.907163   -0.554960
H       0.008662    0.625900   -1.397749
H       1.204418    2.926098   -1.016643
H       1.533414    2.300491    0.615675
H       4.280187    0.812887   -1.116212
H       3.925549    2.488448   -0.555430
H       4.088950   -0.922270    0.536517
H       4.113445   -0.372219    2.220277
H      -0.725346    0.838138    1.561406
H      -1.007341   -0.498621    0.462381
