17

O       0.097335    0.039596    0.220412
C       0.036808    1.227170    0.122288
C      -1.087971    2.267646   -0.034701
C      -1.370930    2.829117    1.364085
N      -0.062566    3.030225    2.015270
C       0.936148    3.454322    1.030956
C       0.317360    4.359470   -0.065118
N      -0.097547    3.130561   -0.825401
C       1.020343    2.363208   -0.098530
H      -1.992656    2.003909   -0.583832
H      -1.964816    3.751419    1.270381
H      -1.965512    2.113586    1.942030
H      -0.136578    3.717705    2.757258
H       1.858237    3.748200    1.536709
H      -0.478357    5.054907    0.219351
H       1.057882    4.896226   -0.664867
H       1.977910    2.218819   -0.601417
