17

C      -0.181728    1.645545    0.193962
C      -0.004414    0.147102   -0.019898
C       0.453859   -0.593057   -1.339063
C       1.618298   -0.441546   -2.374033
C       2.435775    0.376371   -1.386125
C       1.793489   -0.865430   -0.662150
O       2.262025   -1.702926   -1.796386
C       1.187177   -0.617698    0.737697
O       1.383375   -0.914300    1.870117
H       0.704440    2.233550   -0.051376
H      -1.011902    2.019166   -0.413266
H      -0.421066    1.836515    1.245053
H      -0.929132   -0.346356    0.300087
H      -0.140694   -1.489589   -1.516776
H       1.583757   -0.421249   -3.465347
H       3.516764    0.297695   -1.493865
H       2.102239    1.379794   -1.132686
