14

O       0.314270    1.348525   -0.074552
C       0.139824   -0.024562    0.128533
C      -0.093082   -0.399213    1.601164
O      -1.304069   -1.124380    1.262050
C      -1.264930   -0.659228   -0.089794
C      -2.389411    0.321683   -0.397930
F      -2.520390    1.263706    0.533570
F      -2.133915    0.927875   -1.579251
F      -3.565070   -0.306475   -0.514840
H       0.235140    1.535895   -1.016088
H       0.926867   -0.616434   -0.355009
H       0.647645   -1.046612    2.078504
H      -0.299588    0.473635    2.228955
H      -1.331201   -1.475603   -0.818240
