20

C      -0.040341    1.556877   -0.074510
C       0.069881    0.042656   -0.008024
C       1.098853   -0.698414   -0.908709
C       1.391581   -1.664000    0.270988
C       0.755384   -0.615780    1.228913
O       1.709758    0.287182    1.750365
C      -0.174521   -1.118310    2.352408
C       0.590080   -1.789730    3.401132
N       1.254081   -2.299895    4.198498
H       0.929490    2.024135    0.110369
H      -0.393980    1.869619   -1.062874
H      -0.746928    1.944030    0.667871
H      -0.918040   -0.415129   -0.138259
H       0.727178   -1.136643   -1.836999
H       1.959148   -0.063766   -1.134653
H       0.802526   -2.583853    0.213149
H       2.433209   -1.923749    0.473180
H       2.294261   -0.200519    2.343503
H      -0.702414   -0.264660    2.792153
H      -0.925167   -1.808613    1.954290
