21

C      -0.374080    1.364711   -0.085785
C       0.199086   -0.041647   -0.114139
O       0.307896   -0.508817    1.220005
C       0.779233   -1.819494    1.329982
C       2.316692   -2.100890    1.253876
C       2.173885   -3.037162    2.492463
C       0.818344   -2.375200    2.749582
C       0.318834   -1.720207    3.956557
O      -0.275907   -2.927401    3.447725
H       0.278949    2.034106    0.481408
H      -0.473990    1.756403   -1.102443
H      -1.360365    1.366725    0.386805
H      -0.452357   -0.715647   -0.694880
H       1.186850   -0.046096   -0.602205
H       0.221522   -2.495495    0.661710
H       2.704689   -2.542668    0.335038
H       2.878006   -1.193772    1.490779
H       2.061653   -4.088007    2.210941
H       2.929580   -2.959097    3.276260
H       0.863649   -1.829507    4.893550
H      -0.292074   -0.825481    3.860701
