20

C      -0.006844    1.442867   -0.047766
C      -0.035375   -0.075036   -0.035768
C      -1.300163   -0.646309    0.576680
C       0.707878   -0.736730   -1.139102
N       1.316474   -0.614433    0.261381
C       1.225792   -2.116103    0.395164
C       0.671851   -2.241551   -1.023344
C      -0.129834   -3.253312   -1.715806
O       1.269797   -3.082994   -1.989477
H       0.944852    1.808729   -0.440037
H      -0.819622    1.843053   -0.663368
H      -0.124992    1.833627    0.968590
H      -2.175362   -0.205462    0.088146
H      -1.383719   -1.729310    0.478981
H      -1.355250   -0.391728    1.641335
H       1.109880   -0.200663   -1.993945
H       2.232939   -2.532295    0.470805
H       0.619698   -2.471216    1.233406
H      -0.393365   -4.179671   -1.206433
H      -0.802608   -2.956611   -2.519552
