18

N      -0.036984    1.200673    0.762613
C      -0.013365    0.087258    0.168811
C      -1.238740   -0.772184   -0.122793
C      -0.703937   -1.940552   -0.953705
C      -0.720964   -1.879004   -2.494279
C      -0.145039   -0.589633   -2.997801
C       0.802306   -1.656198   -2.526335
C       0.835054   -1.723111   -0.996526
O       1.129420   -0.516668   -0.290891
H       0.906568    1.583457    0.842953
H      -1.672203   -1.100690    0.825742
H      -1.996211   -0.173778   -0.633942
H      -0.998974   -2.917021   -0.569950
H      -1.318098   -2.525618   -3.124816
H      -0.176815   -0.465113   -4.075262
H      -0.260673    0.340828   -2.450172
H       1.547564   -2.091978   -3.179549
H       1.458719   -2.522794   -0.593714
