18

C      -0.186596    1.423331    0.181866
O       0.118567    0.055061   -0.035317
C       0.789591   -0.567197    1.031311
C      -0.062827   -0.661938    2.238453
N      -0.751797   -0.712261    3.164510
C       1.203509   -1.961395    0.544564
C       2.329450   -1.998353   -0.506216
C       3.115837   -2.759676    0.581928
O       2.015919   -2.637674    1.517037
H       0.724672    2.010351    0.367645
H      -0.666694    1.784296   -0.729305
H      -0.872243    1.554145    1.028890
H       1.697757   -0.008948    1.312897
H       0.300938   -2.529445    0.290478
H       2.103002   -2.560215   -1.412061
H       2.728366   -1.020922   -0.782095
H       3.338312   -3.808866    0.357719
H       4.024030   -2.275003    0.957238
