17

O       0.054667    1.421585   -0.179857
C       0.156685    0.043453    0.128207
C      -1.227514   -0.599535    0.092023
C      -1.960328   -0.610521   -1.271575
O      -2.217440    0.288239   -2.031911
C      -2.267677   -2.066500   -1.210849
C      -0.941651   -2.825300   -1.012976
C      -1.483449   -2.116843    0.158938
O      -1.764525   -2.818774    1.302209
H      -0.483626    1.498365   -0.978756
H       0.836180   -0.476978   -0.565766
H       0.600187   -0.027010    1.127237
H      -1.882023   -0.075053    0.802554
H      -3.147454   -2.581925   -1.574918
H      -1.086462   -3.900880   -0.982678
H      -0.037276   -2.510160   -1.524176
H      -2.405851   -2.320803    1.822705
