14

N       0.009541   -1.057072   -0.077948
C       0.004257    0.099385   -0.027953
C      -0.020960    1.521856    0.017538
N      -1.043049    2.313787    0.746565
C      -0.509230    3.487805   -0.034631
C       0.869957    3.709135    0.636350
C       1.261513    2.389145   -0.022637
C       0.198215    2.532979   -1.086296
H      -1.944580    2.061554    0.340438
H      -1.200687    4.301938   -0.234459
H       1.414389    4.541345    0.183999
H       0.871915    3.783944    1.726198
H       2.232782    1.920204   -0.108458
H       0.219920    2.437893   -2.163364
