20

C       0.102176    1.474039   -0.085318
C       0.017189   -0.062179    0.026935
C       0.759921   -0.575010    1.258785
O       2.140111   -0.234668    1.105976
C       2.916817   -0.373699    2.196865
N       4.159234   -0.165453    2.118201
C      -1.443686   -0.509897    0.082292
C      -2.194869   -0.567709   -1.233857
O      -1.969287   -0.806551    1.132596
H       1.149468    1.782971   -0.085478
H      -0.362659    1.838895   -1.005145
H      -0.399582    1.950434    0.763554
H       0.483671   -0.496488   -0.866424
H       0.346363   -0.120591    2.166140
H       0.651409   -1.662597    1.347926
H       2.358952   -0.663900    3.098273
H       4.590501   -0.299722    3.030347
H      -2.043784    0.341154   -1.824219
H      -1.808281   -1.401771   -1.832223
H      -3.258170   -0.723356   -1.048353
