13

N      -0.054020   -1.176553   -0.004073
C      -0.043789   -0.021440    0.002373
C      -0.010361    1.438988    0.010215
C       1.428348    1.990000   -0.001101
C       1.426173    3.530646    0.007414
C       2.777277    4.085986   -0.002726
N       3.851700    4.510212   -0.011253
H      -0.565769    1.804161   -0.861897
H      -0.548166    1.794334    0.897285
H       1.973544    1.616766    0.870096
H       1.956057    1.626398   -0.887016
H       0.885031    3.916359   -0.864831
H       0.902396    3.906660    0.894349
