19

C      -0.828031    1.317511   -0.005616
C       0.005567    0.051856    0.098866
O       0.610834   -0.195260   -1.153608
C       1.410663   -1.354042   -1.166417
C       1.994333   -1.498741   -2.563347
O       2.794497   -2.658153   -2.575260
C       3.393403   -2.897009   -3.825270
H      -0.199564    2.169447   -0.280398
H      -1.603532    1.204428   -0.768562
H      -1.311056    1.536132    0.951435
H       0.778444    0.159889    0.878953
H      -0.625394   -0.804986    0.390828
H       2.227600   -1.284693   -0.429714
H       0.820068   -2.250783   -0.917531
H       1.178480   -1.569355   -3.301247
H       2.586087   -0.602850   -2.813012
H       2.642095   -3.038197   -4.618648
H       4.055840   -2.069748   -4.126374
H       3.987419   -3.809856   -3.735523
