17

C       0.051079    1.476899   -0.093852
C      -0.004458   -0.020272    0.043146
C      -1.339153   -0.735944    0.432127
C      -0.508911   -1.666233    1.311628
C       0.773690   -2.115392    0.590812
C       0.694059   -0.759467    1.228367
C       0.870406   -1.921876   -0.890694
O       1.242127   -2.685390   -1.734114
O       0.490126   -0.635759   -1.167315
H       1.076736    1.805112   -0.286948
H      -0.578446    1.810352   -0.924020
H      -0.302123    1.955018    0.824173
H      -1.973890   -0.085798    1.040090
H      -1.917974   -1.156271   -0.395584
H      -0.859715   -2.248066    2.154517
H       1.332154   -2.926225    1.037656
H       1.365208   -0.362193    1.977874
