16

O      -0.013102   -0.039021   -0.035018
C       0.018418    1.176590    0.016133
C      -1.326836    1.933907    0.199033
O      -1.246461    3.271533    0.703073
C      -0.319272    3.977238   -0.064293
C       0.447345    5.187092    0.553412
N       1.690553    4.504629    0.091221
C       1.029861    3.308928   -0.081966
C       1.236123    1.981567   -0.039023
H      -1.849656    1.926581   -0.772341
H      -1.927426    1.362677    0.908249
H      -0.709436    4.210646   -1.067060
H       0.280928    6.175002    0.119469
H       0.344884    5.215659    1.642439
H       2.595364    4.594778    0.533293
H       2.199903    1.496182    0.060255
