25

C       0.948015   -0.344699    1.283281
C       0.125191    0.094082    0.067591
C       0.735015   -0.343760   -1.273734
C       0.818792   -1.880773   -1.452034
C       0.591912   -2.131335   -2.956841
C      -0.115546   -0.876669   -3.425166
C      -0.733274   -0.836272   -4.788643
C      -0.037468    0.100639   -2.510970
C      -0.538346    1.508353   -2.630655
H       1.029014   -1.434884    1.342518
H       1.965724    0.059638    1.235822
H       0.494560    0.004920    2.216117
H      -0.893471   -0.310313    0.143967
H       0.023844    1.186168    0.082678
H       1.747860    0.093032   -1.324956
H       1.756377   -2.305156   -1.083622
H       0.007184   -2.346560   -0.880070
H       1.541407   -2.256156   -3.499562
H       0.012852   -3.042819   -3.151785
H       0.013857   -1.051019   -5.564517
H      -1.510105   -1.605592   -4.889684
H      -1.188238    0.129341   -5.021711
H      -0.973003    1.713857   -3.611681
H      -1.302056    1.733352   -1.876046
H       0.275537    2.228232   -2.469842
