18

C       0.080654    1.518144   -0.208101
C       1.287211    0.666449   -0.047464
C       1.947116    0.466047    1.295015
C       1.274325    0.799591    2.624805
O       0.039388    1.473849    2.687057
C      -0.978775    0.541165    2.288174
C      -0.268236   -0.458572    1.370904
C       1.121470   -0.567417    2.048879
N      -0.047317    0.052167   -0.015747
H      -0.167714    2.197409    0.597067
H      -0.214117    1.849759   -1.200819
H       1.909034    0.431151   -0.909302
H       3.030805    0.421723    1.319299
H       1.915689    1.016525    3.472847
H      -1.392602    0.036728    3.173060
H      -1.778693    1.096369    1.790690
H      -0.795356   -1.412614    1.308886
H       1.487880   -1.487737    2.486393
