17

C      -0.000064    1.565770   -0.088805
C       0.027906    0.037171    0.014276
C      -1.370485   -0.561897    0.067196
C      -2.216609   -0.565357   -1.226903
O      -2.399978   -2.000959   -1.159791
C      -1.545773   -2.111591   -0.009827
C      -0.335139   -2.897357   -0.279024
N       0.624432   -3.510070   -0.478318
H       1.013877    1.973042   -0.130946
H      -0.526845    1.896678   -0.990732
H      -0.505281    2.013695    0.773903
H       0.573842   -0.385289   -0.837439
H       0.582834   -0.264202    0.911037
H      -1.921988   -0.160442    0.921624
H      -3.174102   -0.036134   -1.194320
H      -1.669737   -0.272304   -2.131824
H      -2.068012   -2.565533    0.840756
