17

C       0.000048    1.467410   -0.064176
C       0.021888   -0.029272   -0.040174
N       0.646318   -0.870408   -1.110828
C       0.084380   -1.860495   -0.150017
C       0.515040   -1.009472    1.080869
C      -0.873705   -1.102102    1.742999
C      -1.197783   -1.023811    0.236538
C      -2.464741   -1.023087   -0.436949
N      -3.472415   -1.007086   -1.006909
H       1.019210    1.855041   -0.155992
H      -0.586335    1.836730   -0.911923
H      -0.442802    1.865912    0.853975
H       0.089442   -0.839388   -1.969902
H       0.142360   -2.940599   -0.283376
H       1.505196   -1.005439    1.531922
H      -1.119879   -2.044839    2.237610
H      -1.191933   -0.251977    2.351436
