18

C      -0.121152    1.587010    0.260555
N      -0.110655    0.135805    0.433319
C       0.983467   -0.622586   -0.111435
C       0.815220   -0.507539    1.386754
C       1.838344    0.294947    2.122800
O       2.492442    1.198503    1.656046
C       0.236139   -1.660939    2.166416
C      -1.206758   -1.815669    2.398549
O      -0.518355   -2.616575    1.432681
H       0.872054    2.048114    0.278423
H      -0.599403    1.796503   -0.700949
H      -0.733545    2.034398    1.049271
H       0.720841   -1.573827   -0.564303
H       1.825031   -0.082306   -0.541386
H       1.963491    0.002404    3.189692
H       0.925203   -2.099853    2.891372
H      -1.557786   -2.348244    3.280994
H      -1.880190   -1.074626    1.976290
