18

C      -0.679830    1.387268   -0.499542
N      -1.018900   -0.021171   -0.446633
C      -0.901444   -0.750608    0.692729
O      -0.523097   -0.300910    1.760383
C      -1.259685   -2.241124    0.570597
C      -2.429167   -2.593577   -0.373822
N      -2.060582   -2.379717   -1.782476
C      -2.887805   -3.975102   -0.122289
N      -3.232567   -5.067852    0.031784
H       0.191484    1.566352   -1.140391
H      -1.518343    1.979534   -0.881560
H      -0.443846    1.710608    0.514746
H      -1.303547   -0.513121   -1.286007
H      -0.366494   -2.793485    0.252197
H      -1.490911   -2.576633    1.582664
H      -3.269500   -1.925223   -0.152976
H      -1.347571   -3.050952   -2.056515
H      -2.861714   -2.541878   -2.385416
