16

C      -0.202370    1.251178   -0.023432
N       0.086962   -0.171994    0.133698
C       1.486882   -0.521754   -0.144022
C       0.965376   -0.485240    1.261807
C       1.045484   -2.032092    1.361584
C       1.606396   -2.066898   -0.070828
O       0.452106   -2.821641   -0.535872
C      -0.128733   -2.802076    0.721254
O      -1.152973   -3.299398    1.051308
H       0.630688    1.911483    0.269177
H      -0.448099    1.447930   -1.070738
H      -1.073452    1.501588    0.588444
H       2.134255    0.165429   -0.674281
H       1.142318    0.228349    2.056120
H       1.547904   -2.471968    2.219491
H       2.550997   -2.524760   -0.356176
