13

N      -0.026267    1.408281    0.149361
C      -0.032081    0.022777    0.047910
C      -1.126166   -0.837093    0.022049
N      -0.585242   -2.092569   -0.010851
C       0.775937   -1.964164    0.000487
C       1.635079   -3.141689   -0.028922
O       2.843232   -3.138787   -0.022952
N       1.126269   -0.681737    0.032518
H       0.876304    1.792155   -0.097102
H      -0.771620    1.870595   -0.351568
H      -2.188989   -0.663924    0.032040
H      -1.098779   -2.958654   -0.038694
H       1.056417   -4.097149   -0.059588
