20

C       0.180011    1.506867    0.203845
C       0.205582   -0.022533    0.126477
C       0.608834   -0.556549   -1.255460
O       1.929438   -0.158106   -1.610675
C       0.587537   -2.089203   -1.305942
C       1.494090   -2.796950   -2.259010
N       1.779984   -2.823133   -0.817711
C      -0.692350   -2.677234   -0.994204
C      -1.776950   -3.144547   -0.767517
H       1.173889    1.945952    0.052825
H      -0.495878    1.934460   -0.545732
H      -0.162299    1.841465    1.187139
H       0.899778   -0.426704    0.873002
H      -0.785260   -0.420218    0.367260
H      -0.110584   -0.186101   -2.004290
H       1.979175    0.799975   -1.555233
H       1.169585   -3.744241   -2.678044
H       2.115865   -2.179181   -2.897719
H       2.497279   -2.123470   -0.630841
H      -2.726058   -3.571623   -0.557114
