23

C       0.130478    1.506178   -0.161515
C      -0.006760    0.000344    0.105619
C      -1.427481   -0.483596    0.065259
C      -2.018660   -1.878384   -0.080132
C      -2.947271   -1.654463    1.112566
C      -2.590313   -0.133175    1.050855
C      -3.621112    0.640348    0.217421
C      -3.578842   -0.063485   -1.168307
C      -2.249182   -0.817492   -1.151204
H       1.176948    1.823399   -0.112866
H      -0.256660    1.766169   -1.152204
H      -0.428217    2.090796    0.577310
H       0.580559   -0.558178   -0.634685
H       0.437114   -0.235512    1.082721
H      -1.507447   -2.804248   -0.323156
H      -4.005832   -1.922702    1.007835
H      -2.554848   -2.126951    2.017040
H      -2.329401    0.334013    2.001749
H      -4.619031    0.626773    0.668535
H      -3.317475    1.689362    0.122437
H      -4.428997   -0.740698   -1.306315
H      -3.614165    0.658268   -1.990247
H      -1.727144   -0.996403   -2.086045
