19

C      -0.156419    1.512337    0.118472
C       0.003212   -0.010981    0.053102
C       0.561025   -0.551855    1.387010
C       0.678909   -2.070169    1.425221
N       1.936928   -2.571615    1.528161
O      -0.304726   -2.794602    1.365320
N      -1.265731   -0.674464   -0.243719
C      -1.871472   -0.556936   -1.452182
O      -1.534531    0.201728   -2.340977
H       0.808559    1.989294    0.320035
H      -0.539825    1.880883   -0.833265
H      -0.855522    1.790613    0.914077
H       0.715480   -0.245432   -0.751246
H       1.521628   -0.066534    1.582419
H      -0.122160   -0.267514    2.195317
H       2.752312   -1.986244    1.556553
H       2.055489   -3.572044    1.531164
H      -1.477018   -1.492102    0.318382
H      -2.742569   -1.236513   -1.542190
