20

C       0.052045    1.449238    0.045831
C      -0.041569   -0.034003   -0.019537
C      -0.073223   -0.890887   -1.048039
C      -0.039015   -2.256850   -0.353037
N      -0.981443   -2.078599    0.807213
C      -0.010650   -0.997194    1.190013
C       1.104996   -2.009175    0.733664
C       1.392300   -3.173602    1.670201
O       2.298447   -1.398120    0.320327
H       1.005261    1.756924    0.494830
H      -0.010971    1.898833   -0.949258
H      -0.742017    1.882045    0.667826
H      -0.033773   -0.695609   -2.110500
H      -0.118941   -3.172849   -0.940756
H      -1.860381   -1.670272    0.488119
H      -0.061388   -0.588874    2.201607
H       0.469677   -3.634353    2.020001
H       1.985601   -3.938415    1.150829
H       1.973534   -2.827648    2.532096
H       2.986422   -2.069798    0.298179
