16

C      -0.083487    1.472964    0.013179
C      -0.002089    0.021762    0.009338
C       0.078570   -1.182165    0.008053
C       0.137659   -2.593626    0.001360
C       1.195644   -3.414637    0.147061
C       0.723405   -4.837852    0.062592
C      -0.794960   -4.710107   -0.157935
O      -1.616676   -5.586544   -0.287563
N      -1.042516   -3.350531   -0.179332
H       0.517502    1.905586   -0.794370
H      -1.116683    1.810001   -0.122357
H       0.281594    1.887601    0.959354
H       2.213805   -3.093647    0.299348
H       1.165819   -5.403326   -0.766429
H       0.911838   -5.422188    0.971335
H      -1.959741   -2.957231   -0.309150
