19

N       0.002481   -1.209753    0.184125
C       0.018076   -0.054737    0.220788
C       0.059688    1.404536    0.253225
C       1.400007    1.974973   -0.264382
C       1.398806    3.475711   -0.236447
C       0.717663    4.417647   -1.250593
C       1.879986    5.443238   -1.030846
C       2.507625    4.469878   -0.023760
N       1.572751    4.146262    1.051134
H      -0.775284    1.787171   -0.345388
H      -0.102859    1.742133    1.282577
H       2.212199    1.602244    0.366172
H       1.581482    1.615737   -1.283128
H       0.707025    4.020361   -2.268817
H      -0.296042    4.743783   -0.993752
H       2.481848    5.585042   -1.931275
H       1.612012    6.427083   -0.631619
H       3.564794    4.312529    0.159529
H       0.893371    4.888107    1.214031
