14

N      -0.168933    1.413358    0.130303
C      -0.041316    0.157077    0.007640
N       1.197805   -0.492610   -0.119458
C       1.423063   -1.434362   -0.942165
N       0.573868   -2.008242   -1.876409
C      -0.798005   -1.848514   -2.001845
N      -1.624154   -1.314572   -1.197562
C      -1.260289   -0.735815    0.029756
N      -1.908391   -0.903356    1.107471
H       0.755760    1.852235    0.098223
H       2.423128   -1.866683   -0.979641
H       1.009797   -2.620088   -2.550983
H      -1.177382   -2.287347   -2.924847
H      -2.699481   -1.529746    0.932803
