20

C       0.046480    1.551703    0.039251
C      -0.088377    0.029398   -0.085030
C       0.695418   -0.541988   -1.264351
C       2.234627   -0.674010   -1.072479
C       1.986981   -2.071448   -0.457609
C       0.741069   -2.102258   -1.392784
N       1.191195   -2.444976   -2.749502
C       2.206570   -1.778755   -3.114128
O       2.847262   -0.839075   -2.372540
H       1.087006    1.852645    0.201438
H      -0.303684    2.053287   -0.869207
H      -0.542643    1.932134    0.879167
H       0.220410   -0.442137    0.855161
H      -1.145927   -0.232529   -0.218111
H       0.402317   -0.028972   -2.186311
H       2.817648    0.086705   -0.553584
H       2.750700   -2.835490   -0.613749
H       1.727970   -2.008106    0.599343
H      -0.134459   -2.691828   -1.118714
H       2.674025   -1.906079   -4.087011
