18

C      -0.075476    1.488611    0.007571
C      -0.015521   -0.009001    0.006079
C       0.042076   -0.815087   -1.108019
N       0.154571   -2.122611   -0.662749
C       0.004356   -3.462832   -1.185929
C       0.358075   -4.268609    0.091843
O       0.086860   -3.392276    1.203880
C       0.111661   -2.129113    0.699396
C       0.022394   -0.851328    1.176944
H       0.805639    1.932499    0.486829
H      -0.129222    1.881259   -1.012248
H      -0.952992    1.858010    0.551664
H       0.069520   -0.568767   -2.156788
H      -1.021255   -3.652566   -1.529480
H       0.693651   -3.677202   -2.007297
H      -0.238778   -5.173443    0.215562
H       1.422737   -4.531257    0.099002
H      -0.007869   -0.538605    2.207683
