20

C       0.057701    1.362753   -0.085982
O      -0.111188   -0.033647    0.081369
C       0.665738   -0.608659    1.093677
C       0.059233   -1.972355    1.458392
C       0.920772   -2.700378    2.491583
N       2.266249   -2.879459    1.954440
C       2.951010   -1.608174    1.723613
C       2.148469   -0.770902    0.726072
O       2.648074   -0.263891   -0.248238
H       1.064004    1.612240   -0.435719
H      -0.673464    1.679092   -0.833730
H      -0.144658    1.901914    0.853386
H       0.654547    0.026898    2.002451
H      -0.956083   -1.816534    1.834692
H      -0.008034   -2.575704    0.547458
H       0.911213   -2.132827    3.443415
H       0.495927   -3.686993    2.700640
H       2.822244   -3.463341    2.568667
H       3.074976   -1.002305    2.645712
H       3.941611   -1.782719    1.298037
