15

O      -0.150691    0.105649    0.336941
C       0.037083    1.240194   -0.030517
C       1.365767    1.871311   -0.096301
C       2.653941    1.429631    0.567936
C       3.060766    2.905905    0.405232
C       3.192376    3.148064   -1.113300
C       1.688091    2.950646   -1.106561
N       1.548596    3.327532    0.323276
H      -0.800591    1.902833   -0.344839
H       2.473703    1.162284    1.611086
H       3.271731    0.665889    0.087459
H       3.705637    3.405614    1.124243
H       3.441585    4.188024   -1.336858
H       3.826972    2.474521   -1.697131
H       0.959095    3.263848   -1.846170
