19

C      -0.133426    1.580527   -0.047528
C      -0.031563    0.042845   -0.036676
C      -1.410351   -0.652186    0.026475
N      -2.113522   -0.323957    1.260863
C      -3.158626    0.694426    1.185685
C      -3.509364   -0.743469    1.328405
C       0.711007   -0.442850   -1.198496
C       1.299930   -0.838569   -2.169290
H       0.861873    2.029499   -0.096370
H      -0.701315    1.926159   -0.917356
H      -0.628887    1.934229    0.859419
H       0.509405   -0.254685    0.871205
H      -1.993347   -0.391484   -0.875163
H      -1.252692   -1.735635    0.006640
H      -3.226808    1.367660    2.035533
H      -3.349625    1.158874    0.219566
H      -3.935054   -1.238743    0.456895
H      -3.837058   -1.142872    2.283998
H       1.832722   -1.190484   -3.017563
