18

N      -0.345718   -1.127287   -0.132367
C      -0.216239    0.022913   -0.088897
C      -0.059977    1.442474   -0.021437
C       0.485840    2.103289    1.260632
C       0.944730    1.252719    2.442245
C       2.455135    0.981966    2.355215
C       2.822155    0.456001    0.973006
O       2.510652    1.391011   -0.070746
C       1.329058    2.098708    0.023964
H      -0.823265    1.992589   -0.561905
H      -0.003339    3.038875    1.509937
H       0.704703    1.772207    3.373588
H       0.401068    0.301648    2.464842
H       3.015252    1.904278    2.550067
H       2.757204    0.248156    3.109256
H       3.898605    0.290734    0.882186
H       2.313817   -0.497098    0.779777
H       1.406411    3.014210   -0.554015
