18

O      -0.591212    0.329769   -0.474679
C      -0.320373    1.455910   -0.188139
O       0.947868    1.911799   -0.138548
C       1.175322    3.269713    0.221258
C       2.074354    3.534463    1.453845
C       2.793944    4.654781    0.641673
C       2.192919    4.035410   -0.624980
C       2.893353    3.485793   -1.804007
N       2.019459    4.673871   -1.918136
H      -1.065849    2.236746    0.060728
H       0.215614    3.799424    0.289051
H       1.573662    3.814475    2.381862
H       2.725975    2.677257    1.635381
H       2.390291    5.650304    0.845206
H       3.882461    4.692611    0.705801
H       3.952435    3.685353   -1.943140
H       2.545222    2.536307   -2.200397
H       1.125894    4.413558   -2.330825
