27

C       1.428339   -2.193542    2.641844
C       0.779998   -2.114809    1.257144
C      -0.709492   -2.476249    1.266454
C      -1.364017   -2.374495   -0.118349
C      -2.818684   -2.826817   -0.167277
C      -3.815181   -2.043058    0.679150
C      -3.954248   -0.567759    0.283349
C      -3.326093   -3.370779   -1.482904
C      -3.067856   -4.308789   -0.326402
H       2.490994   -1.933848    2.602715
H       0.943785   -1.506974    3.345171
H       1.347800   -3.203139    3.060366
H       0.904879   -1.101673    0.851649
H       1.309987   -2.783058    0.565211
H      -0.834742   -3.497287    1.652194
H      -1.230242   -1.819449    1.975574
H      -1.283909   -1.340819   -0.481459
H      -0.787415   -2.983513   -0.827000
H      -4.795520   -2.528183    0.595767
H      -3.537473   -2.112450    1.738697
H      -4.726356   -0.074177    0.881922
H      -3.020941   -0.016090    0.434447
H      -4.231136   -0.467688   -0.771556
H      -4.357711   -3.171506   -1.755420
H      -2.645113   -3.400345   -2.327273
H      -2.208598   -4.968879   -0.390079
H      -3.923374   -4.746127    0.178054
