16

O      -0.054869    1.401591    0.074080
C       0.010677   -0.008723   -0.017438
C      -1.419621   -0.575176   -0.081928
C      -1.219368   -1.974477   -0.672420
O      -2.361198   -2.580404   -1.206341
C      -0.138172   -1.735884   -1.726858
O      -0.065395   -2.372360   -2.748977
C       0.692838   -0.528703   -1.308000
H       0.833417    1.738138    0.228480
H       0.524021   -0.425918    0.862419
H      -1.918988   -0.572563    0.888129
H      -2.010964    0.031830   -0.776846
H      -0.757554   -2.619166    0.102295
H      -2.074693   -2.992807   -2.035141
H       0.610305    0.230140   -2.095031
H       1.752429   -0.778828   -1.201780
