22

O      -0.058247    1.544188   -0.128512
C       0.066839    0.131407   -0.068251
C      -1.333001   -0.463644   -0.002319
C      -1.326063   -1.995159    0.050892
C      -2.726289   -2.582930    0.141387
C      -2.931145   -4.108655    0.366299
C      -3.744023   -3.719675    1.598662
C      -2.937659   -2.905871    2.524145
N      -3.553687   -2.230025    1.364673
H       0.824683    1.923104   -0.164382
H       0.596885   -0.259441   -0.953288
H       0.645470   -0.179900    0.817674
H      -1.848181   -0.063405    0.877577
H      -1.898643   -0.120208   -0.877065
H      -0.846688   -2.402301   -0.850555
H      -0.712701   -2.336159    0.894885
H      -3.307017   -2.243705   -0.722203
H      -3.514549   -4.582673   -0.424865
H      -2.039701   -4.715674    0.556373
H      -4.711786   -4.128953    1.870281
H      -3.391529   -2.602380    3.462527
H      -1.860401   -3.045339    2.572646
