14

C      -0.011773    1.432334    0.009668
N      -0.006616   -0.011244    0.075792
N      -0.043432   -0.771882   -1.084134
N      -0.029978   -2.037091   -0.774625
C       0.016106   -2.136608    0.584750
C       0.030347   -0.867498    1.104990
O       0.075059   -0.821464    2.442793
C       0.090601   -2.176433    2.804647
C       0.056729   -3.008842    1.730941
H       0.897233    1.844398    0.457270
H      -0.053539    1.701992   -1.045751
H      -0.884644    1.840803    0.526976
H       0.126664   -2.345001    3.867668
H       0.060788   -4.086124    1.771436
