16

O       0.131696    1.277990    0.146177
C       0.081295   -0.058885    0.015617
N       0.087251   -0.737233   -1.104860
C       0.067844   -2.052440   -0.672148
C       0.049872   -2.143678    0.677364
C      -0.141190   -3.542199    1.163302
N      -0.040021   -4.325811   -0.106148
C      -0.077064   -3.409330   -1.289875
N       0.035385   -0.834972    1.141378
H       0.168043    1.632723   -0.751134
H       0.609447   -3.892376    1.883792
H      -1.124943   -3.693441    1.634114
H       0.854030   -4.798914   -0.106231
H      -1.029544   -3.515765   -1.828516
H       0.717584   -3.673578   -1.997712
H       0.074487   -0.493176    2.086052
