22

C      -0.294189    1.405149   -0.202709
C      -0.486064   -0.051655   -0.591134
O      -1.286863   -0.666652    0.405740
C      -1.445630   -2.077582    0.303275
C      -1.513552   -2.644605    1.712958
C      -2.693626   -2.395342   -0.515432
N      -3.740162   -2.880720    0.005880
O      -2.481460   -2.060482   -1.819839
C      -3.564305   -2.213715   -2.725239
H       0.324776    1.917830   -0.945436
H      -1.259171    1.916785   -0.143326
H       0.193794    1.483379    0.772972
H      -0.961579   -0.130779   -1.577373
H       0.488124   -0.564690   -0.656347
H      -0.584091   -2.502974   -0.234533
H      -0.593526   -2.392988    2.246648
H      -2.365912   -2.221161    2.247049
H      -1.633218   -3.730093    1.690043
H      -4.496944   -3.017349   -0.662471
H      -3.878715   -3.262121   -2.797900
H      -4.423267   -1.599388   -2.429609
H      -3.197977   -1.880246   -3.696790
