15

N      -0.049603    1.518666   -0.081941
C       1.433627    1.413384    0.062787
C       1.341178    0.025025    0.791592
C      -0.019430    0.032336    0.010556
C       0.700756   -0.416045   -1.285288
N       1.445125   -1.759684   -0.915842
C       2.087225   -0.883551   -0.244948
O       3.028159   -0.017104   -0.911722
C       1.884502    0.775466   -1.261762
H      -0.441205    1.896808    0.779167
H       1.994919    2.269057    0.431436
H       1.436887   -0.104743    1.863392
H      -0.916947   -0.505217    0.304823
H       0.195876   -0.598749   -2.228154
H       2.046592    1.367682   -2.157358
