15

C       0.909857    0.845544   -0.260411
O      -0.246276    0.266272   -0.858228
C      -0.352253    0.713384    0.493702
C      -0.534927   -0.330144    1.539233
N      -0.925737    0.093765    2.745316
C      -1.067700   -0.841297    3.685292
C      -0.830046   -2.188813    3.428378
N      -0.458374   -2.620629    2.220669
C      -0.316217   -1.688137    1.279879
H       1.726388    0.155807   -0.052679
H       1.200662    1.821208   -0.646391
H      -0.952922    1.608206    0.648637
H      -1.386286   -0.507239    4.669453
H      -0.949703   -2.936695    4.207638
H      -0.035112   -2.015709    0.283887
