17

C       0.025347   -1.243697   -0.065518
C       0.019269   -0.040351   -0.026333
C      -0.017515    1.376356    0.032694
C       0.258428    2.304829   -1.152684
C       1.082934    2.440325    0.079996
O       0.406926    3.201663    1.078022
C      -0.633854    2.210318    1.140862
C      -2.050454    2.541984    1.456360
C      -1.192602    1.743768    2.436257
H       0.040610   -2.304674   -0.099650
H       0.739616    1.811769   -1.990787
H      -0.460236    3.078796   -1.405596
H       2.160201    2.351009    0.147308
H      -2.268292    3.572496    1.714997
H      -2.838095    2.029432    0.914205
H      -1.386527    0.682295    2.549554
H      -0.852808    2.250820    3.332507
