13

C      -0.007640    1.495750   -0.051081
N       1.358437    2.011719    0.110871
C       2.352468    1.251570    0.254818
O       2.409650   -0.125686    0.293760
C       1.175491   -0.696266    0.149894
C       0.032852    0.009283   -0.011709
O      -1.001458   -0.833318   -0.123920
N      -0.525251   -2.146974   -0.032975
C       0.775271   -2.052629    0.130223
H      -0.638667    1.915356    0.743383
H      -0.417277    1.875304   -0.996372
H       3.355195    1.651525    0.373203
H       1.367977   -2.949937    0.226308
