21

O      -0.210783    1.514205    0.091570
C      -0.047348    0.113487    0.258109
C      -1.380694   -0.540113   -0.080740
C      -1.846440   -0.370654   -1.536318
C      -2.962870   -1.413082   -1.666919
C      -2.404916   -2.641699   -0.918835
C      -1.456516   -2.087625    0.187545
C      -0.098538   -2.753786    0.121055
O       0.520000   -3.158360    1.072390
H       0.618957    1.943483    0.319436
H       0.745821   -0.271960   -0.404320
H       0.241604   -0.138231    1.290290
H      -2.130700   -0.069763    0.566796
H      -2.166984    0.651075   -1.749696
H      -1.023234   -0.606187   -2.224856
H      -3.869178   -1.047234   -1.169837
H      -3.231020   -1.638522   -2.702815
H      -3.185585   -3.280205   -0.498786
H      -1.832079   -3.266743   -1.615924
H      -1.837970   -2.270938    1.194728
H       0.316557   -2.855756   -0.911084
