16

C       0.113986    1.400181    0.076511
N      -0.006262   -0.043029    0.105830
C      -1.164319   -0.570303    0.070161
N      -1.198093   -1.985210    0.100082
N      -2.279004   -2.741459    0.083055
C      -3.421217   -2.127713    0.030852
C      -3.469791   -0.678158   -0.012598
N      -4.688355   -0.073070   -0.035620
N      -2.395991    0.059305   -0.001292
H       0.712312    1.701514   -0.793179
H      -0.846105    1.927672    0.037683
H       0.663090    1.740162    0.964009
H      -0.309967   -2.463243    0.144185
H      -4.314405   -2.741248    0.023635
H      -5.506441   -0.599859   -0.287862
H      -4.700559    0.919038   -0.211714
