18

C      -0.222434    1.526732    0.180616
C       0.014126    0.027671    0.072005
C       1.149870   -0.560280   -0.828666
C       2.179919   -0.111405    0.247677
C       0.989435   -0.729981    1.042135
C       1.027037   -1.892249    0.009601
C      -0.135153   -2.820165   -0.195391
O      -1.158591   -2.830099    0.444459
H       0.687680    2.114302    0.322062
H      -0.717237    1.897320   -0.724151
H      -0.888280    1.740799    1.023741
H      -0.946274   -0.476497   -0.044774
H       1.249310   -0.490896   -1.913547
H       3.123604   -0.662958    0.276189
H       2.355013    0.958381    0.355066
H       0.894585   -0.834581    2.123303
H       1.950255   -2.486011   -0.006765
H       0.024771   -3.559983   -1.015923
