17

C       0.081296    1.578558    0.028891
C       0.008717    0.051579    0.025680
C       0.673793   -0.621038   -1.201823
C       1.208286   -1.966612   -0.696108
O       1.342519   -2.977667   -1.337372
C       1.439465   -1.819570    0.781703
N       2.173352   -0.552895    1.093286
C       0.713786   -0.593853    1.220097
H       1.125078    1.906899    0.047377
H      -0.395064    1.998848   -0.862490
H      -0.423504    1.998445    0.905830
H      -1.042958   -0.260959    0.063912
H       0.000612   -0.768495   -2.047979
H       1.527345   -0.028728   -1.550921
H       1.587286   -2.696434    1.400353
H       2.598307   -0.662771    2.011377
H       0.265494   -0.532411    2.207248
