12

N       0.145727    1.422978   -0.135609
C       0.077890    0.161683   -0.236869
O       1.140733   -0.597612   -0.678483
N       1.070802   -2.048349   -0.797757
N       0.026554   -2.619068   -0.493991
C      -1.102661   -1.931219   -0.036522
C      -1.122366   -0.595016    0.102344
C      -2.351325    0.104895    0.595418
O      -3.357893   -0.496139    0.883682
H       1.062101    1.772645   -0.417125
H      -1.959029   -2.550077    0.197706
H      -2.263039    1.200771    0.673673
