13

N       0.068360    1.350799   -0.124324
C      -0.035081   -0.013021   -0.034018
C      -1.123915   -0.805831   -0.005071
C      -0.700696   -2.218780    0.015642
O      -1.373997   -3.226251   -0.039932
N       0.693783   -2.196221    0.126011
C       1.221333   -0.860757   -0.031844
H       0.920365    1.770150    0.214866
H      -0.757150    1.885461    0.098111
H      -2.162244   -0.509697   -0.006614
H       1.215084   -3.010372   -0.154959
H       1.777086   -0.724190   -0.971256
H       1.893349   -0.574744    0.791321
