22

C      -0.173132    1.193466    0.556663
O       0.153806   -0.129980    0.202387
C       0.741489   -0.371841   -1.060055
C       0.085441    0.226322   -2.347305
C       1.513853    0.505112   -2.890223
C       2.070948    0.348890   -1.448541
C       0.887613   -1.881155   -1.164753
C       1.191404   -2.710400    0.023698
N      -0.141443   -2.771593   -0.615440
H       0.697408    1.862911    0.537600
H      -0.955686    1.619995   -0.085052
H      -0.552373    1.153108    1.580768
H      -0.569850   -0.435756   -2.917726
H      -0.448296    1.157126   -2.143047
H       1.867015   -0.281677   -3.560796
H       1.674031    1.468276   -3.378043
H       2.176546    1.316180   -0.951223
H       2.993520   -0.218573   -1.305439
H       1.274585   -2.204940   -2.129065
H       1.792512   -3.609306   -0.081510
H       1.272331   -2.203896    0.979665
H      -0.774371   -2.199682   -0.059104
