17

C       0.080115    1.408994    0.098500
N       0.056720   -0.035494   -0.001807
C      -0.026758   -0.808098   -1.139173
N      -0.008308   -2.089888   -0.871972
C       0.080915   -2.181747    0.502450
C       0.118271   -3.452008    1.288311
O       0.834342   -3.257652    2.526257
C       0.122860   -0.919830    1.042838
O       0.225980   -0.473262    2.312717
H       0.083322    1.829612   -0.908499
H      -0.797947    1.779952    0.635587
H       0.976529    1.744989    0.627262
H      -0.092869   -0.358035   -2.118534
H      -0.879506   -3.782917    1.600236
H       0.558064   -4.262197    0.693232
H       1.761089   -3.129597    2.293319
H       0.383365   -1.273432    2.843658
