19

C      -0.242280    1.509733   -0.056254
C       0.101574    0.019997    0.053984
C       0.796212   -0.504751   -1.178715
C       0.017110   -0.938548   -2.412461
C       0.833374   -1.946158   -1.647433
O       2.159005   -2.167200   -2.110304
C       2.780058   -0.958396   -1.967284
N       4.049829   -0.918712   -2.476913
N       2.127148    0.007631   -1.441223
H       0.662803    2.096848   -0.233272
H      -0.929071    1.693928   -0.889120
H      -0.716722    1.873359    0.860399
H       0.752439   -0.146325    0.921143
H      -0.810512   -0.564700    0.225670
H      -1.059552   -1.032489   -2.310440
H       0.364950   -0.617964   -3.389007
H       0.408943   -2.815012   -1.160720
H       4.543652   -1.798509   -2.458648
H       4.588149   -0.128950   -2.155048
