20

C      -0.017670    1.546477   -0.050701
C       0.115352    0.022901    0.044697
C       0.728603   -0.513266    1.353997
C      -0.134600   -0.174360    2.582160
O       0.444691   -0.651412    3.781319
C       1.008360   -2.043132    1.271499
O       2.454777   -2.152226    1.306864
C       2.897345   -0.897500    1.513929
N       2.078213    0.070053    1.568602
H       0.942111    2.029478    0.148264
H      -0.347516    1.835319   -1.053280
H      -0.749444    1.943020    0.659135
H      -0.866306   -0.450791   -0.092791
H       0.744360   -0.332972   -0.780538
H      -0.298673    0.909898    2.626093
H      -1.111987   -0.662120    2.493205
H       1.305897   -0.221791    3.851989
H       0.613363   -2.587528    2.132250
H       0.658251   -2.500708    0.343093
H       3.974782   -0.814264    1.614492
