18

C      -0.008019    1.551898   -0.081358
C      -0.049477    0.046753    0.074904
C       1.230193   -0.783417   -0.020553
C       0.534280   -0.671458    1.293611
C       1.125846    0.115159    2.454378
C       2.043433   -0.703294    3.249722
N       2.762383   -1.361293    3.870065
C      -1.264706   -0.609300   -0.481723
O      -2.171694   -0.024788   -1.018501
H       0.953518    1.971026    0.223777
H      -0.174269    1.818170   -1.128458
H      -0.799160    2.031885    0.502480
H       1.198477   -1.732209   -0.545514
H       2.145567   -0.220293   -0.168899
H      -0.013764   -1.553291    1.615198
H       1.671706    0.993809    2.098619
H       0.331310    0.483642    3.113821
H      -1.280065   -1.719171   -0.366784
