18

O       0.025775   -0.017894   -0.003572
C       0.046449    1.198469    0.005913
N       1.177808    1.940542   -0.001817
C       2.498476    1.301558   -0.021016
C       3.425204    2.485297   -0.018820
C       2.747205    3.630237   -0.001400
C       1.283651    3.391843    0.010587
C       0.313027    4.285734   -0.728218
C       0.327606    4.272164    0.783782
H      -0.875316    1.811731    0.021416
H       2.627168    0.646159    0.850898
H       2.610097    0.663223   -0.907846
H       4.501649    2.378105   -0.030445
H       3.160611    4.630764    0.003942
H       0.712688    5.151331   -1.246083
H      -0.519732    3.808458   -1.233572
H      -0.495489    3.786252    1.296666
H       0.737674    5.128318    1.309166
