17

C      -0.088088    1.624829    0.115683
C       0.041965    0.088978    0.033586
C       0.763757   -0.353184   -1.266719
C      -0.047797   -0.033219   -2.503690
O       0.374790    0.522894   -3.482667
C       0.721426   -0.448064    1.206065
C       1.296296   -0.889805    2.175459
C       1.943430   -1.383443    3.266105
C       2.516872   -1.823206    4.233505
H       0.900211    2.092721    0.135031
H      -0.631871    2.009709   -0.752639
H      -0.625218    1.920339    1.019789
H      -0.972143   -0.337803    0.010300
H       1.749721    0.111230   -1.350655
H       0.901180   -1.442448   -1.241630
H      -1.109915   -0.374725   -2.451667
H       3.023170   -2.207713    5.083835
