20

C      -0.199890    1.537906    0.056570
C       0.059320    0.020244    0.018940
C       0.767449   -0.432632   -1.231264
C       2.046880   -0.830263   -1.234758
C       2.740063   -1.344296   -2.440645
O       3.851564   -1.845362   -2.398800
N       2.018209   -1.255149   -3.610912
C       0.886017   -0.349936   -3.740194
C      -0.024794   -0.479036   -2.518989
H       0.742306    2.093127    0.025075
H      -0.812154    1.867882   -0.788664
H      -0.727590    1.813612    0.974360
H       0.649815   -0.267508    0.894706
H      -0.901748   -0.506949    0.096795
H       2.643893   -0.853857   -0.329178
H       2.558068   -1.470424   -4.436597
H       1.218657    0.696619   -3.833990
H       0.337893   -0.600523   -4.653201
H      -0.573977   -1.431133   -2.557149
H      -0.779103    0.314105   -2.543014
