23

C      -0.029058    1.574777    0.013228
C      -0.001681    0.038794    0.000692
C       0.637166   -0.505948   -1.288793
C       0.895793   -2.015115   -1.191653
C       1.834791   -2.327622   -0.035951
C       2.344666   -3.744892    0.118997
C       3.289539   -2.665570   -0.330761
C       1.546432   -1.544283    1.190375
C       0.710027   -0.505018    1.218400
H       0.987513    1.983070   -0.008260
H      -0.568412    1.965011   -0.856432
H      -0.523031    1.956151    0.913302
H      -1.048586   -0.304853    0.034285
H      -0.005312   -0.280332   -2.147478
H       1.589926    0.012799   -1.459935
H      -0.059370   -2.533542   -1.029742
H       1.306868   -2.400403   -2.131479
H       2.455381   -4.140869    1.123292
H       2.015876   -4.475937   -0.612789
H       3.605083   -2.657524   -1.369096
H       4.044284   -2.319091    0.366958
H       2.049973   -1.860501    2.102304
H       0.525972    0.007895    2.160410
