22

C      -0.261667    0.711229   -3.504521
O      -0.133018   -0.617288   -3.055232
C       0.881867   -0.769855   -2.081425
C       0.846918   -2.202325   -1.596532
C       1.308544   -3.333478   -2.463564
C       1.856118   -3.123398   -3.858558
O       2.908094   -4.032185   -4.166405
N       2.036806   -2.979705   -1.248862
C       3.379291   -2.418824   -1.320596
H      -0.525355    1.396988   -2.683697
H       0.666976    1.078216   -3.970402
H      -1.060618    0.728505   -4.249595
H       1.859796   -0.496552   -2.503532
H       0.700770   -0.087710   -1.233436
H       0.001038   -2.399651   -0.939224
H       0.765786   -4.277415   -2.368966
H       1.025909   -3.209133   -4.575841
H       2.284807   -2.128660   -3.989751
H       2.570271   -4.925139   -4.040903
H       3.576004   -1.736289   -2.158176
H       3.583439   -1.880995   -0.389007
H       4.089397   -3.246336   -1.402313
