17

O       0.017712    1.221351   -0.542457
C      -0.030967   -0.181104   -0.393154
C      -1.303116   -0.594218    0.343337
O      -2.468786   -0.068323   -0.342062
C      -2.899333   -0.988276   -1.338059
C      -2.253047   -2.314765   -0.970322
O      -2.194680   -3.330210   -1.613970
C      -1.550181   -2.107267    0.369545
O      -0.407325   -2.904272    0.496044
H      -0.863018    1.490924   -0.831419
H       0.023785   -0.697062   -1.367756
H       0.846221   -0.490135    0.180947
H      -1.316854   -0.133983    1.333749
H      -3.993412   -1.050867   -1.328955
H      -2.584554   -0.694263   -2.349065
H      -2.289278   -2.326804    1.160693
H      -0.526870   -3.645457   -0.116781
