14

C      -0.215179    1.442957   -0.082134
C       0.038146   -0.050420    0.067553
C       0.911631   -0.778155   -0.994359
O       1.874117   -1.149155    0.062406
C       1.157307   -0.474882    1.021242
O       1.438039   -0.327371    2.165765
C       0.348928   -1.921704   -1.676699
C      -0.138267   -2.857823   -2.250761
H       0.707915    1.983235   -0.313739
H      -0.938383    1.638276   -0.879189
H      -0.616824    1.848398    0.850552
H      -0.886587   -0.593914    0.277019
H       1.402761   -0.096997   -1.695578
H      -0.561061   -3.689699   -2.758747
