20

C      -0.740649    0.946127    0.084615
C      -0.361989   -0.536864   -0.017223
C      -1.597557   -1.417335   -0.241906
N       0.536223   -0.705862   -1.150500
C       1.693826   -1.187088   -1.053374
C       2.464770   -1.740211    0.113392
O       2.486831   -1.303114   -2.191061
C       2.228419   -0.512776   -3.277988
O       2.810822   -0.675828   -4.305463
H       0.144826    1.566116    0.253646
H      -1.218738    1.281097   -0.840959
H      -1.435671    1.107249    0.914508
H       0.105823   -0.834302    0.933050
H      -2.088117   -1.150324   -1.182826
H      -1.321186   -2.474628   -0.292151
H      -2.313816   -1.287016    0.575287
H       1.863204   -1.798433    1.019000
H       2.830897   -2.739218   -0.139695
H       3.343023   -1.115723    0.305489
H       1.470240    0.253029   -3.071834
