16

O      -0.023575   -0.006673   -0.004420
C       0.040856    1.205481    0.006261
N       1.194926    1.915058    0.080623
C       2.523568    1.294954   -0.004113
C       3.359965    2.466902   -0.502810
O       2.829210    2.854886   -1.813550
C       2.098562    3.906431   -1.191474
C       2.757196    3.738737    0.147918
C       1.312158    3.350418   -0.003325
H      -0.850218    1.864102   -0.023913
H       2.863995    0.926875    0.973255
H       2.507236    0.461768   -0.709553
H       4.439888    2.323319   -0.521436
H       1.827904    4.772681   -1.783798
H       3.196805    4.416071    0.866301
H       0.523878    3.944409    0.442153
