19

C      -0.066067    1.522061    0.181538
C       0.022375    0.000169    0.022965
C       1.006309   -0.466172   -1.111754
C       2.057980   -0.921263   -0.055933
C       1.018306   -0.630050    1.034570
O       0.956736   -0.840302    2.210835
C      -1.329143   -0.682972    0.009329
C      -2.514979   -0.193538    0.721572
O      -2.396471   -0.043102   -0.696750
H       0.916413    1.985118    0.051319
H      -0.748061    1.933867   -0.567195
H      -0.429793    1.794098    1.176444
H       0.610302   -1.292330   -1.706124
H       1.328936    0.326281   -1.788204
H       2.399430   -1.958995   -0.100617
H       2.940226   -0.278040    0.022654
H      -1.277410   -1.758489   -0.172353
H      -3.267050   -0.907156    1.054242
H      -2.469674    0.730085    1.293178
