25

C       1.301151    1.270069   -0.545539
C       0.778733   -0.131874   -0.261688
C      -0.154623   -0.598146   -1.369697
C       1.683152   -1.174694    0.389341
C       3.145122   -0.946140    0.697016
O       3.977881   -1.214053   -0.426466
C       0.530530   -0.574103    1.180732
C       0.801068    0.386999    2.330821
C      -0.648539   -1.480869    1.505468
H       2.037937    1.624173    0.176545
H       1.769150    1.310336   -1.537421
H       0.478178    1.994778   -0.554469
H       0.347781   -0.529422   -2.342154
H      -0.477327   -1.633359   -1.246316
H      -1.053242    0.028814   -1.423933
H       1.508321   -2.192003    0.042294
H       3.324878    0.066620    1.083111
H       3.477423   -1.643522    1.474337
H       3.666056   -0.659960   -1.149232
H       1.657301    1.042521    2.170993
H      -0.072819    1.025530    2.508108
H       0.986205   -0.170969    3.256255
H      -0.472549   -2.001111    2.454436
H      -1.573522   -0.902057    1.618048
H      -0.822291   -2.244463    0.745278
