20

C       0.023154    1.516684   -0.060962
N       0.058855    0.074993    0.112705
C      -1.212063   -0.638766    0.347776
C      -0.480349   -1.581035    1.329442
C       0.679763   -0.533765    1.320429
C       2.101356   -1.060092    1.084669
N       2.988814    0.030724    0.692897
C       0.632079    0.335199    2.510898
N       0.553504    1.022640    3.437491
H       1.041370    1.912529   -0.076482
H      -0.454298    1.745114   -1.019564
H      -0.532549    2.035816    0.737663
H      -1.969903   -0.019342    0.851369
H      -1.656356   -1.080008   -0.550021
H      -0.957890   -1.766644    2.289878
H      -0.169202   -2.526063    0.880981
H       2.472569   -1.503522    2.015256
H       2.024374   -1.865374    0.337762
H       3.958853   -0.239240    0.808053
H       2.854893    0.239751   -0.290814
