19

C      -0.096300    1.554038   -0.025029
C      -0.011785    0.040207    0.001730
C       1.251442   -0.659766   -0.590884
O       2.046276   -0.137408    0.552130
C       0.788844   -0.654808    1.146232
C       0.932221   -1.893994    0.255640
C       0.153668   -3.152071    0.026729
C       1.636679   -3.180089    0.408213
O       2.583079   -3.492010   -0.571041
H       0.869726    1.994501    0.229332
H      -0.392650    1.909169   -1.018021
H      -0.845120    1.914978    0.688506
H      -0.960188   -0.445012   -0.250307
H       1.693044   -0.597054   -1.584971
H       0.672518   -0.581440    2.228564
H      -0.579154   -3.470461    0.762212
H      -0.083433   -3.414763   -0.999899
H       1.883018   -3.513651    1.417238
H       2.570345   -4.445981   -0.703031
