18

C      -0.021724    1.549792   -0.013638
C       0.008015    0.039253    0.020876
C      -1.309012   -0.756479    0.283013
C      -0.612887   -1.541231    1.439303
C       0.708827   -0.764250    1.175121
C       1.667628   -1.363643    0.119873
O       0.879386   -2.050622   -0.861724
C       1.002180   -0.629139   -0.970940
H       0.991188    1.969725   -0.028549
H      -0.543937    1.913688   -0.907414
H      -0.538459    1.956484    0.862086
H      -2.130516   -0.116653    0.616796
H      -1.652847   -1.369109   -0.552208
H      -1.037675   -1.338998    2.425246
H      -0.549096   -2.620894    1.295219
H       1.195276   -0.246536    2.003027
H       2.692935   -1.697683    0.237165
H       1.376490   -0.240793   -1.913515
