12

N      -0.721657   -0.301875   -1.336796
C      -0.295419    0.305771   -0.452179
C       0.265364    1.083204    0.648651
C       1.525910    1.840946    0.284470
C       2.135862    1.832604   -0.966616
N       3.240769    2.536594   -1.171994
N       3.743011    3.241127   -0.163085
N       3.168968    3.251110    1.020602
N       2.062635    2.559512    1.264274
H      -0.482212    1.797519    1.012181
H       0.485028    0.419400    1.492680
H       1.747420    1.266447   -1.807813
