24

C       0.078571    1.562299    0.052583
C       0.011801    0.037093   -0.048434
C      -1.415759   -0.536906    0.042325
C      -1.423937   -2.062781   -0.175091
C      -2.822921   -2.681645   -0.202723
N      -2.095730   -0.146543    1.279340
C      -1.576637   -0.578735    2.567564
C      -3.222418    0.625250    1.252144
O      -3.853133    0.998232    2.219940
H       1.109353    1.915062   -0.046745
H      -0.512669    2.037729   -0.738049
H      -0.306924    1.920188    1.011835
H       0.435821   -0.288130   -1.005855
H       0.640864   -0.419365    0.725830
H      -2.005903   -0.084662   -0.766081
H      -0.913879   -2.261413   -1.125146
H      -0.813355   -2.546896    0.597165
H      -3.349245   -2.531275    0.744498
H      -3.436634   -2.237855   -0.994627
H      -2.769519   -3.758360   -0.388879
H      -0.561041   -0.204745    2.736523
H      -2.237846   -0.174030    3.333772
H      -1.561463   -1.671061    2.647594
H      -3.512239    0.885633    0.215447
