19

C      -0.057718    1.533312    0.033056
C       0.024110    0.020682    0.013750
C       1.049060   -0.702203   -0.919968
C       1.069749   -1.825076    0.146852
C       0.698444   -0.748208    1.196548
C      -0.130422   -2.731910   -0.071675
O      -1.350142   -1.987113   -0.257580
C      -1.335878   -0.625984   -0.225592
O      -2.361721   -0.023334   -0.382378
H       0.934023    1.962855    0.206909
H      -0.443145    1.917469   -0.915396
H      -0.731327    1.879717    0.821687
H       0.735554   -0.956044   -1.936578
H       1.991698   -0.150005   -0.954330
H       1.977051   -2.417486    0.284278
H       1.575805   -0.204573    1.556226
H       0.075786   -1.042616    2.046159
H       0.000034   -3.354739   -0.964240
H      -0.290284   -3.392788    0.788148
