17

O      -0.050976    1.476865   -0.187621
C       0.056241    0.120215   -0.068628
C       0.037072   -1.024224   -1.054653
C       1.272914   -1.666036   -0.429964
C       0.937235   -0.855171    0.849856
C      -0.404978   -1.499700    1.345706
C      -0.924230   -0.934372    2.576635
C      -1.352532   -0.471442    3.600525
C      -1.026808   -0.896653    0.076568
H       0.702254    1.803984   -0.692682
H      -0.280496   -1.017480   -2.089718
H       1.306912   -2.756570   -0.327365
H       2.193516   -1.317425   -0.906912
H       1.699525   -0.572638    1.571656
H      -0.386505   -2.594903    1.409951
H      -1.733301   -0.059891    4.502094
H      -2.076996   -0.788856   -0.159305
