16

O       0.137909    1.417805    0.099274
C       0.049233    0.017031    0.084790
C       0.259759   -0.628600    1.479108
C      -1.130223   -1.304529    1.381997
N      -2.237517   -0.465036    1.849297
C      -2.473373    0.175318    0.646684
O      -3.259415    1.017000    0.303141
C      -1.359872   -0.639575   -0.046570
O      -1.585940   -1.246135   -1.268575
H      -0.176028    1.754327   -0.747324
H       0.700515   -0.432985   -0.678350
H       1.098173   -1.326690    1.512075
H       0.358978    0.096520    2.289018
H      -1.235818   -2.369482    1.585543
H      -2.414805   -0.111555    2.780237
H      -2.531591   -1.398900   -1.373709
