17

C       0.012072    1.526356   -0.024271
C       0.009636    0.019552   -0.016441
C      -0.009560   -0.707016   -1.203841
C      -0.011393   -2.097576   -1.169347
C       0.006329   -2.716927    0.072874
N       0.024956   -2.046099    1.227567
C       0.026684   -0.708650    1.190708
C       0.048005   -0.004705    2.523456
H       0.899797    1.933052    0.474286
H      -0.003615    1.913393   -1.046522
H      -0.857818    1.936062    0.502437
H      -0.023063   -0.181034   -2.154412
H      -0.026176   -2.684258   -2.081091
H       0.005664   -3.801822    0.150898
H       0.929697    0.639446    2.625361
H      -0.829083    0.640855    2.652673
H       0.059764   -0.746101    3.322917
