20

C       0.194687    1.673177   -0.203934
C      -0.045598    0.200358    0.036908
N       1.086985   -0.729658   -0.118439
C       0.537741   -0.554727    1.218327
C       1.388574    0.090814    2.259140
C       0.797929    0.413951    3.611449
C       1.791643   -0.708730    3.478176
C      -1.368064   -0.332883   -0.401783
O      -1.581931   -1.505669   -0.611349
H       1.133238    2.000148    0.244398
H       0.245655    1.888958   -1.276487
H      -0.615283    2.273360    0.225258
H       0.719052   -1.591474   -0.523823
H      -0.101853   -1.354331    1.592625
H       2.135798    0.773743    1.871253
H       1.110771    1.329845    4.099907
H      -0.241392    0.152831    3.783095
H       1.423534   -1.726284    3.558389
H       2.792561   -0.566451    3.869376
H      -2.169094    0.427510   -0.527867
