19

O      -0.009031    0.188133   -0.619705
C      -0.020717    1.352762   -0.319158
C      -1.103067    2.361970   -0.039994
C      -2.424086    2.446280   -0.769011
C      -2.399210    2.072063    0.680859
C      -0.041781    3.452938    0.223337
C       1.041105    2.390958   -0.068958
C       2.363604    2.136450    0.616526
C       2.339194    2.510672   -0.833351
H      -2.776050    3.436026   -1.040234
H      -2.626808    1.668999   -1.498364
H      -2.584821    1.037279    0.949170
H      -2.734056    2.804056    1.408253
H      -0.062602    4.289428   -0.480786
H      -0.033277    3.844393    1.244429
H       2.698068    2.877493    1.334877
H       2.584285    1.107159    0.879352
H       2.543081    1.738884   -1.568192
H       2.656827    3.509469   -1.113623
