19

C      -0.345545    1.482114   -0.048584
C       0.010289    0.013574   -0.070587
C       0.642325   -0.725904   -1.179056
C       1.709524    0.090195   -1.902690
C       2.433691    0.201073   -0.525941
C       3.727828   -0.612747   -0.451874
C       2.683190    1.544699    0.001874
N       2.915953    2.599945    0.413545
N       1.344710   -0.592096    0.178348
H       0.258307    2.095979   -0.717629
H      -1.392828    1.592123   -0.349557
H      -0.240679    1.892126    0.960118
H      -0.713275   -0.591168    0.474472
H       0.275214   -1.687362   -1.523268
H       2.298665   -0.482489   -2.620010
H       1.378773    1.017262   -2.375784
H       4.512249   -0.148106   -1.056133
H       4.070448   -0.682619    0.583313
H       3.538751   -1.623627   -0.821652
