21

C      -0.109402    1.536670   -0.251468
C      -0.071713    0.191937    0.485288
C      -1.388474   -0.540524    0.382358
O      -1.719569   -1.126037   -0.884740
C      -1.544317   -1.998265    0.241604
C      -0.403813   -2.959099    0.180329
C      -0.143365   -3.888342    1.356341
C      -0.669163   -4.435249    0.055858
O      -2.007299   -4.829669   -0.027148
H       0.847728    2.060110   -0.168934
H      -0.326786    1.385230   -1.312931
H      -0.885883    2.191578    0.158930
H       0.734022   -0.428164    0.081566
H       0.152873    0.352546    1.548029
H      -2.226442   -0.004560    0.838013
H      -2.472411   -2.439946    0.603023
H       0.465514   -2.593622   -0.354094
H       0.881666   -4.089102    1.647742
H      -0.851033   -3.842167    2.178289
H       0.015041   -5.007922   -0.569848
H      -2.106760   -5.649345    0.467818
