11

O       0.182331   -0.022697   -0.000372
C       0.018864    1.147372    0.008799
O      -1.156442    1.827434    0.029384
N      -0.896477    3.220066    0.033941
C       0.380116    3.297383    0.016452
C       1.215279    4.535031    0.012268
C       0.429754    5.765884    0.028116
N      -0.152900    6.761342    0.040258
O       1.025345    2.110838    0.000333
H       1.883648    4.513549    0.882011
H       1.861913    4.522211   -0.873905
