23

C       0.184613    1.557688    0.101735
C      -0.031563    0.036089    0.034256
C      -1.506237   -0.301309    0.299644
C       0.529754   -0.547601   -1.276758
O       1.916105   -0.190283   -1.306675
C       0.412163   -2.089249   -1.447836
C       0.284567   -2.271966   -2.981677
O       0.414692   -0.966971   -3.555614
C      -0.113307   -0.064937   -2.588819
H       1.225714    1.813135   -0.099383
H      -0.444956    2.080721   -0.628132
H      -0.083864    1.936748    1.092905
H       0.568779   -0.418016    0.834089
H      -2.165761    0.127209   -0.462950
H      -1.696745   -1.376971    0.342640
H      -1.812034    0.120574    1.262191
H       2.223017   -0.373658   -2.203229
H       1.306593   -2.560291   -1.036388
H      -0.456979   -2.503028   -0.934132
H       1.061320   -2.903454   -3.420193
H      -0.693530   -2.698714   -3.247744
H      -1.212627   -0.121604   -2.556919
H       0.189930    0.946201   -2.866115
