15

C       0.002480    1.429106    0.068048
N      -0.022865   -0.021696    0.095680
C      -1.112209   -0.638261    0.011093
O      -2.384058   -0.111055   -0.113680
C      -3.278168   -1.166488   -0.173130
C      -2.640933   -2.332888   -0.091936
N      -1.272130   -2.037748    0.025541
C      -0.249289   -2.966712    0.136553
O      -0.444590   -4.157773    0.143232
H       0.647804    1.762722   -0.752270
H      -0.982796    1.893354   -0.052635
H       0.450766    1.800752    0.996528
H      -4.317158   -0.905663   -0.272079
H      -2.985451   -3.351046   -0.102281
H       0.731882   -2.476360    0.214931
