19

C      -0.111299    1.424751   -0.194805
C      -0.062988   -0.052526    0.018039
C      -1.031163   -0.895892    0.367941
C      -2.517877   -0.952245    0.270428
C      -2.613194   -2.145121   -0.723887
O      -1.503771   -3.013045   -0.442226
C      -0.530269   -2.311183    0.315421
O       0.754499   -2.238587   -0.267882
C       1.176705   -0.873662   -0.274267
H       0.560293    1.947459    0.497895
H       0.216133    1.690027   -1.207701
H      -1.118853    1.820026   -0.042355
H      -2.995578   -1.208480    1.223381
H      -2.982112   -0.043727   -0.119019
H      -3.532754   -2.727655   -0.615560
H      -2.552434   -1.776192   -1.756923
H      -0.437234   -2.837669    1.278554
H       1.592786   -0.621259   -1.260458
H       1.981236   -0.727315    0.464370
