17

O      -0.557307    0.758367    0.907425
C       0.088656    0.955950   -0.089601
C       1.328655    1.825717   -0.134873
C       1.299618    2.878906   -1.271828
C       2.548532    3.802423   -1.169182
C       2.519830    4.918485   -2.103416
C       2.475129    5.844090   -2.867916
C       1.216777    2.245806   -2.586023
C       1.175542    1.703542   -3.657825
H      -0.191363    0.494595   -1.060904
H       1.438733    2.313452    0.837654
H       2.194266    1.166958   -0.291386
H       0.415028    3.513364   -1.132298
H       2.608132    4.183472   -0.142382
H       3.447941    3.196778   -1.333525
H       2.444588    6.659498   -3.547347
H       1.127174    1.239953   -4.612236
