14

O      -0.141752    1.458278    0.114893
C      -0.044792    0.062771    0.036127
C       0.874784   -0.510439    1.012482
C       1.667685   -0.960335    1.796766
C      -1.399128   -0.668741    0.006754
N      -2.098752   -0.210968   -1.191853
C      -1.103820   -1.334466   -1.310250
C       0.225222   -0.625441   -1.389273
O       1.165389   -0.642541   -2.120687
H       0.753211    1.816087    0.119214
H       2.364224   -1.359197    2.492943
H      -1.910062   -1.085265    0.864193
H      -3.019444   -0.650736   -1.197749
H      -1.394874   -2.304540   -1.690223
