20

C      -0.210987    1.282518    0.128251
O       0.345715   -0.001514   -0.035748
C       0.864421   -0.549070    1.149298
C      -0.226833   -1.232579    2.040642
C       0.089816   -2.542596    1.314369
C      -0.381903   -3.926673    1.485670
N      -0.767903   -3.140419    0.289284
C       1.436191   -1.977985    0.836345
O       1.854189   -2.294873   -0.446806
H       0.534530    1.999453    0.505595
H      -0.555411    1.613801   -0.854412
H      -1.066722    1.283069    0.820492
H       1.535433    0.162994    1.649774
H       0.043864   -1.252896    3.100729
H      -1.243455   -0.842748    1.939183
H       0.286340   -4.759661    1.283590
H      -1.139992   -4.124283    2.239872
H      -1.722015   -2.800699    0.381688
H       2.250035   -2.212896    1.531272
H       1.045514   -2.393781   -0.968735
