13

N      -0.009980    1.231406   -0.466088
C       0.031705    0.054375   -0.060346
O       1.047909   -0.697539    0.517781
C       0.229166   -1.894159    0.572098
C      -0.600614   -1.987079    1.853607
O      -1.649231   -1.157622    1.276729
C      -0.976291   -1.093625    0.004375
C      -1.802697   -1.415577   -1.137652
N      -2.442773   -1.694670   -2.057661
H       0.870399    1.728023   -0.321439
H       0.714814   -2.757988    0.126222
H      -0.978271   -2.989813    2.078822
H      -0.146877   -1.536148    2.739919
