22

C      -0.110215    1.547227   -0.008180
C       0.089342    0.022065   -0.096377
C       0.897839   -0.327640   -1.270592
N       1.548980   -0.602383   -2.185515
C       0.724456   -0.559059    1.176090
C      -0.104950   -0.525359    2.489323
C       0.461864   -1.932710    2.834577
C      -0.452203   -2.956728    3.487702
C       0.835104   -2.098670    1.333624
H       0.849630    2.056660    0.115710
H      -0.589490    1.936268   -0.909769
H      -0.741986    1.786477    0.851472
H      -0.891616   -0.452903   -0.233903
H       1.702223   -0.089928    1.329656
H       0.075176    0.291786    3.191937
H      -1.180652   -0.575794    2.280977
H       1.376784   -1.819840    3.427199
H      -1.374872   -3.085304    2.910133
H       0.034812   -3.935645    3.558794
H      -0.733290   -2.651067    4.501777
H       0.038068   -2.611842    0.783060
H       1.787590   -2.570192    1.083557
