16

O       0.274361    1.526363    0.103071
C       0.075368    0.122848    0.047097
C       0.608849   -0.444328   -1.206180
N       1.036821   -0.895426   -2.179680
C       0.707228   -0.545395    1.278610
O       2.011959    0.014063    1.536080
C       1.607272    0.507404    2.841938
C       0.167833   -0.026233    2.646952
O      -0.887710    0.887771    2.630125
H       1.224601    1.640391    0.259283
H      -1.006535   -0.044852    0.073277
H       0.741416   -1.633532    1.155934
H       2.192829    0.044947    3.643254
H       1.682330    1.598571    2.913751
H      -0.116866   -0.820246    3.339362
H      -0.681491    1.560931    1.964823
