17

C       0.083073    1.405887    0.359494
N      -0.031225   -0.019311    0.120400
C      -1.130536   -0.616907   -0.102316
N      -1.128702   -1.997249   -0.243581
C      -2.241242   -2.662079   -0.887235
C      -3.504553   -2.151538   -0.225713
O      -3.598847   -0.723530   -0.334461
C      -2.495798    0.056116   -0.217254
O      -2.624420    1.249865   -0.237532
H       1.106619    1.613503    0.684804
H      -0.113753    1.984559   -0.550478
H      -0.613948    1.774921    1.119481
H      -0.200341   -2.375136   -0.371644
H      -2.288737   -2.482059   -1.973761
H      -2.157131   -3.741534   -0.730246
H      -4.403050   -2.541356   -0.708495
H      -3.516591   -2.430313    0.834220
