18

C      -0.320501    1.480418   -0.033673
C      -0.000871    0.003079   -0.027222
C       0.696677   -0.671601   -1.168690
N       1.348886   -0.545266    0.142985
C       2.492563    0.376032    0.193419
C       3.192552    0.419122   -1.152721
O       2.299598    0.843713   -2.200329
C       1.133442    0.160395   -2.341448
O       0.496473    0.255234   -3.353626
H       0.356943    2.064564   -0.660209
H      -1.334015    1.627879   -0.418734
H      -0.288224    1.888536    0.982751
H      -0.748347   -0.598330    0.487728
H       0.392710   -1.674870   -1.455032
H       2.194925    1.388788    0.488161
H       3.194622    0.011114    0.952075
H       4.013949    1.138591   -1.158924
H       3.595758   -0.568709   -1.407330
