22

C      -0.160903    1.450193    0.195521
O       0.330630    0.156564   -0.077447
C       0.750573   -0.532681    1.073557
C      -0.301679   -1.180687    2.038254
C       0.404043   -2.528522    1.811251
N       0.422381   -2.922187    0.424022
C      -0.688962   -2.711827   -0.496433
C       1.380661   -1.912587    0.818484
C       2.842294   -2.140527    0.561473
H       0.601173    2.076320    0.685990
H      -0.430658    1.905793   -0.760276
H      -1.051945    1.426327    0.840634
H       1.445249    0.097488    1.651537
H      -0.220424   -0.812533    3.063248
H      -1.348010   -1.128989    1.725057
H       0.586920   -3.281925    2.570948
H      -1.206130   -1.752129   -0.395876
H      -0.304918   -2.775854   -1.518978
H      -1.409879   -3.523871   -0.354201
H       3.113630   -1.815859   -0.449983
H       3.463395   -1.579717    1.268462
H       3.081077   -3.203385    0.648542
