16

C      -0.156540    1.511561    0.091429
C       0.125079    0.011694    0.001068
N       0.745162   -0.511204    1.203496
C       0.262518   -1.363813    2.120025
N       1.139923   -1.569744    3.087787
C       2.185130   -0.783224    2.699930
N       3.322201   -0.651567    3.472522
N       2.006088   -0.120734    1.562448
H       0.771112    2.057287    0.276718
H      -0.593291    1.868292   -0.846078
H      -0.854394    1.729555    0.905103
H      -0.798934   -0.554176   -0.151267
H       0.789184   -0.201132   -0.843135
H      -0.718373   -1.809998    2.044900
H       3.497477   -1.458962    4.052304
H       4.135216   -0.356641    2.951952
