12

O      -0.058753   -0.041215    0.000977
C       0.002321    1.150116    0.009913
N       1.201486    1.892938    0.001684
C       1.322128    3.258629    0.011445
N       2.576633    3.608290   -0.000809
C       3.232502    2.386671   -0.018420
N       2.437442    1.327978   -0.017773
C       4.644950    2.279422   -0.036325
C       5.844094    2.204052   -0.051385
H      -0.867318    1.831136    0.026031
H       0.468357    3.920226    0.027025
H       6.904086    2.133304   -0.064737
