22

C       1.847433   -0.372576    0.551580
C       0.477367   -0.109628   -0.088783
C       0.427080   -0.325485   -1.594650
C       1.277299    0.637444   -2.438944
C       2.690477    0.287189   -2.544689
C       3.849313   -0.011530   -2.662358
C       0.178160   -1.693710   -2.136913
N      -0.838887   -0.656034   -2.267616
C      -2.080170   -0.809029   -1.524813
H       2.174987   -1.400832    0.368347
H       2.619250    0.290886    0.155231
H       1.793793   -0.221972    1.634522
H      -0.261220   -0.755996    0.394185
H       0.168387    0.922799    0.126704
H       0.835613    0.659065   -3.440941
H       1.178967    1.654724   -2.036227
H       4.874055   -0.271615   -2.759091
H       0.656257   -2.023625   -3.056127
H       0.001831   -2.486793   -1.409766
H      -1.998305   -1.395518   -0.596784
H      -2.482957    0.177732   -1.274162
H      -2.805738   -1.314152   -2.170819
