18

O      -0.051369    1.475885    0.006712
C       0.038072    0.092058   -0.141147
C       0.934437   -0.244464   -1.339984
C       0.981058   -1.761261   -1.621015
N      -0.129390   -1.552230   -2.680944
H      -0.067229   -2.066942   -3.557455
H      -1.047320   -1.712064   -2.265628
C       0.221847   -0.058392   -2.698746
C       0.615362   -0.562197    1.174419
O       0.744282   -1.805106    1.156887
O       0.869876    0.283754    2.051247
H       0.288252    1.560510    0.934390
H      -0.965955   -0.352215   -0.311857
H       1.892653    0.262979   -1.238994
H       1.871098   -2.122400   -2.136753
H       0.684459   -2.376028   -0.765612
H      -0.658794    0.582292   -2.738346
H       0.875861    0.118513   -3.554478
