20

C       0.019672    1.580114   -0.067872
C       0.017979    0.063920    0.155402
C      -1.366812   -0.560070    0.010302
C      -2.045217   -0.656669   -1.405035
C      -2.262752   -2.158609   -1.183899
C      -0.922700   -2.836214   -0.995748
C      -1.537345   -2.080806    0.150344
O      -1.888570   -2.702912    1.338376
H       1.024415    1.999842    0.042880
H      -0.337801    1.833621   -1.071843
H      -0.634369    2.085166    0.651691
H       0.713202   -0.410166   -0.549228
H       0.403326   -0.156716    1.160356
H      -2.061616   -0.075161    0.705418
H      -2.967398   -0.076967   -1.478867
H      -1.402783   -0.402563   -2.255762
H      -3.149133   -2.720820   -1.449435
H      -0.977816   -3.914531   -0.882132
H      -0.039729   -2.480998   -1.522905
H      -1.085719   -3.026732    1.760361
