14

O      -0.163805    0.194232    0.551440
C       0.076888    1.113005   -0.183942
C       1.384264    1.881594   -0.145518
O       1.313410    2.887374   -1.148842
C       2.388869    3.679213   -1.269448
N       3.483124    3.573710   -0.521400
N       4.252659    4.554492   -1.002897
N       3.747895    5.273965   -1.989635
C       2.545416    4.736311   -2.187303
H      -0.640402    1.474249   -0.952952
H       1.530722    2.323123    0.848579
H       2.225466    1.200154   -0.326174
H       5.170021    4.732364   -0.629706
H       1.870079    5.105830   -2.940120
