17

C       0.110926    1.603460    0.010939
C       0.078293    0.082284    0.022971
C       0.762762   -0.720783   -1.096647
C       2.281132   -0.789093   -0.762185
C       2.437964   -0.214202    0.607631
O       3.366148    0.217518    1.234034
C       1.020028   -0.691862    0.999643
C       1.232162   -1.766798   -0.162296
O       1.144669   -3.124685   -0.221623
H       1.129148    1.983743   -0.119833
H      -0.503166    1.999011   -0.804951
H      -0.279029    2.009954    0.949992
H      -0.946696   -0.284977    0.140210
H       0.460802   -0.838586   -2.130340
H       3.020054   -0.984787   -1.526968
H       0.759396   -0.876438    2.038503
H       1.889248   -3.510311    0.255352
