23

C      -0.083484    1.572380   -0.104362
C      -0.006984    0.050623   -0.025819
O      -1.289740   -0.527430   -0.192464
C       1.153752   -0.547780   -0.881354
C       2.007807   -0.641097    0.410577
C       0.698170   -0.518359    1.240683
C       0.681182    0.251725    2.553424
C       1.434265   -0.469511    3.665094
O       1.371728    0.337087    4.832589
H       0.894762    2.037454    0.050012
H      -0.435192    1.879894   -1.097679
H      -0.776959    1.968805    0.643148
H      -1.719855   -0.101134   -0.941726
H       0.870355   -1.534656   -1.255505
H       1.538366    0.055640   -1.708511
H       2.611177   -1.540382    0.549650
H       2.654967    0.232262    0.541483
H       0.279042   -1.519937    1.394018
H       1.128439    1.244929    2.426727
H      -0.353261    0.409246    2.882534
H       0.979533   -1.458767    3.838868
H       2.478597   -0.642023    3.357496
H       1.847886   -0.114466    5.535366
