23

C       0.221638    1.372898    0.319297
C      -0.132447   -0.077012   -0.045896
C      -1.647676   -0.271931   -0.208847
C       0.643881   -0.550814   -1.276525
C       0.348979    0.142864   -2.595841
C       2.083164   -1.017465   -1.086196
O       2.654562   -1.073428    0.186063
C       0.993756   -2.020687   -1.399379
O       0.622352   -2.858522   -0.327569
H       1.299315    1.481017    0.470506
H      -0.089831    2.078894   -0.458349
H      -0.283096    1.667445    1.245546
H       0.181262   -0.702730    0.793863
H      -2.055949    0.357021   -1.007624
H      -1.886781   -1.314445   -0.439542
H      -2.169510   -0.002320    0.715512
H       0.529153    1.220639   -2.529761
H       0.991713   -0.243658   -3.393953
H      -0.688672   -0.009524   -2.911702
H       2.815717   -0.756505   -1.845635
H       2.199193   -1.788215    0.652541
H       0.930139   -2.489260   -2.379988
H       1.113126   -3.682795   -0.417707
