21

C      -0.017846    1.547377    0.035840
C       0.040856    0.038193    0.003953
C      -0.830639   -0.790188    0.932644
C       0.671814   -0.817591    1.096637
C       1.438562   -1.925979    0.410758
C       2.802069   -2.370888    0.901520
C       1.622682   -3.295093    1.034525
C       1.152758   -1.751928   -1.041563
C       0.406666   -0.666192   -1.267282
H       0.926812    1.991278   -0.297948
H      -0.812758    1.926762   -0.617575
H      -0.222016    1.913366    1.047011
H      -1.391779   -0.254920    1.693046
H      -1.330061   -1.665916    0.531167
H       1.097418   -0.359048    1.983180
H       3.560472   -2.602163    0.160897
H       3.185356   -1.897312    1.800057
H       1.201396   -3.455305    2.021311
H       1.573330   -4.161330    0.382777
H       1.498226   -2.455225   -1.791596
H       0.069860   -0.322258   -2.239257
