17

C       0.115246    1.423218    0.119204
N      -0.295170    0.060495   -0.190267
C       0.453082   -0.626705   -1.160472
C       0.686081   -1.976251   -1.176096
O       0.375665   -2.942674   -0.258872
N       1.365849   -2.291238   -2.355311
C       1.592550   -1.136327   -3.040726
O       2.291945   -1.220603   -4.203588
C       1.037055   -0.081160   -2.358945
H       1.174629    1.519810    0.408712
H      -0.054597    2.069253   -0.748274
H      -0.505235    1.804204    0.934975
H      -0.367957   -0.502595    0.648002
H      -0.504651   -3.292525   -0.446751
H       1.811146   -3.171687   -2.547240
H       2.409994   -0.329326   -4.545127
H       1.025191    0.948803   -2.678219
