14

N       0.687594    0.252368   -0.625286
C      -0.201326    0.118490    0.381078
O      -0.172046    0.693043    1.445493
C      -1.387844   -0.855076    0.057413
C      -2.301924   -0.245020   -0.905164
N      -3.032353    0.234260   -1.661622
C      -0.908431   -2.217253   -0.499092
N      -1.390844   -3.296259    0.157265
O      -0.150068   -2.291189   -1.447893
H       1.506653    0.813693   -0.454635
H       0.684275   -0.426462   -1.376444
H      -1.910805   -0.973146    1.009069
H      -2.056819   -3.223067    0.906022
H      -1.141644   -4.211615   -0.183180
