20

O      -0.105054    1.463917   -0.243358
C      -0.061446    0.085587    0.056161
C      -1.452377   -0.527199    0.083715
O      -1.994266   -0.350650   -1.228405
C      -3.317945   -0.582285   -1.372969
N      -3.858421   -0.493879   -2.505800
C      -5.255757   -0.733383   -2.603067
C      -6.026298    0.067672   -3.627531
C      -5.758780   -1.393959   -3.866156
H      -0.581816    1.545339   -1.077698
H       0.559946   -0.469314   -0.663831
H       0.397651   -0.016656    1.044802
H      -1.406381   -1.594934    0.338282
H      -2.077652   -0.008008    0.821409
H      -3.840562   -0.836955   -0.439336
H      -5.781878   -0.980561   -1.677919
H      -7.032909    0.380375   -3.373359
H      -5.454962    0.784286   -4.205195
H      -5.008648   -1.654230   -4.603181
H      -6.579840   -2.096538   -3.777733
