15

C      -0.093948    1.381317   -0.052762
N      -0.048284   -0.056606    0.110292
C       0.638450   -0.629686    1.134905
N       1.235072    0.086075    2.019279
C       0.621505   -2.110948    1.129365
C       1.163985   -3.046879    1.960214
N       0.824729   -4.276529    1.456716
N       0.137664   -4.163950    0.412577
O      -0.024251   -2.754899    0.155074
H       0.907195    1.797963   -0.212885
H      -0.725040    1.617696   -0.911128
H      -0.507883    1.856140    0.842194
H      -0.439736   -0.652120   -0.597205
H       1.685085   -0.491761    2.724040
H       1.754128   -2.941578    2.853615
