19

C      -0.625720    1.455455    0.117259
C       0.013532    0.073621    0.011318
C       0.784261   -0.279006   -1.271217
C       1.874104    0.704097   -1.750991
O       2.931236   -0.134382   -1.238485
C       1.999616   -1.164930   -0.842641
C       1.955962   -1.336811    0.670177
C       0.995460   -0.244954    1.153920
O       0.992027    0.273916    2.239152
H       0.109615    2.251415   -0.030376
H      -1.420448    1.583700   -0.623428
H      -1.051216    1.588834    1.114980
H      -0.779977   -0.683241    0.123814
H       0.140422   -0.666987   -2.060621
H       1.936668    0.816616   -2.840530
H       1.885964    1.700130   -1.293746
H       2.172167   -2.095359   -1.393075
H       1.535919   -2.312606    0.948570
H       2.938938   -1.245783    1.136372
