17

O       0.125051    1.428227   -0.146469
C       0.078610    0.013830   -0.048250
C      -1.355751   -0.519362   -0.027501
C      -1.415071   -2.050247    0.044990
N      -0.916420   -2.581574    1.324921
C      -1.863514   -3.289712    1.804466
N      -3.019445   -3.362203    1.035842
C      -2.849132   -2.585585   -0.108540
O      -3.659822   -2.396640   -0.980014
H      -0.206630    1.791727    0.680523
H       0.599277   -0.362339   -0.936364
H       0.625409   -0.353241    0.831034
H      -1.890864   -0.102391    0.835897
H      -1.886970   -0.193870   -0.927756
H      -0.806588   -2.469595   -0.768323
H      -1.813897   -3.820918    2.749774
H      -3.870328   -3.848313    1.268485
