19

C       0.415148    1.769903    0.034655
C       0.567070    0.259718    0.201178
C       0.609686   -0.535972   -1.083883
N       0.519226    0.138352   -2.168184
O       0.573754   -0.610363   -3.354129
C       0.769956   -2.037391   -0.865342
O       0.963116   -2.441851    0.272359
N       0.667656   -2.852087   -1.944417
C       0.791356   -4.291940   -1.831593
H       1.243386    2.193957   -0.539300
H      -0.509001    2.024178   -0.491437
H       0.395236    2.250820    1.016932
H       1.474875    0.015451    0.764482
H      -0.245862   -0.148826    0.813735
H       0.473822    0.068770   -4.028768
H       0.536000   -2.424892   -2.846933
H       1.683492   -4.657435   -2.353595
H       0.873721   -4.540372   -0.773582
H      -0.086834   -4.792325   -2.253778
