17

O      -0.688572    0.762026    1.015472
C      -0.241254   -0.263066    0.207078
C      -0.027868   -1.707122    0.611324
C      -0.909189   -1.366250   -0.573196
C      -2.340340   -1.781316   -0.792713
C      -3.140266   -1.590330    0.414189
C      -3.768605   -1.411925    1.424304
O      -0.096795   -1.129854   -1.729407
C       0.522657    0.019968   -1.076639
H      -1.490396    0.464481    1.461533
H       0.918854   -2.219515    0.454671
H      -0.572646   -1.996092    1.505721
H      -2.752977   -1.180921   -1.613141
H      -2.390808   -2.830178   -1.115140
H      -4.352059   -1.277634    2.301824
H       0.209266    0.952831   -1.556782
H       1.615256   -0.052044   -1.056333
