18

C       0.018205    1.430451   -0.121689
C      -0.048542   -0.063159   -0.053444
O       0.489527   -0.770456   -1.199977
C      -0.286696   -1.909978   -0.749128
C      -0.548664   -2.965361   -1.777488
C       0.207489   -2.243677    0.689688
C       0.385027   -0.866427    1.208517
N      -0.936636   -1.561044    1.386893
C      -1.292310   -0.995036    0.006210
H       1.061089    1.765081   -0.138830
H      -0.475213    1.799995   -1.024768
H      -0.469553    1.872915    0.752113
H       0.391136   -3.429926   -2.095032
H      -1.194722   -3.746019   -1.364695
H      -1.033902   -2.536582   -2.658548
H       0.678654   -3.135430    1.084748
H       1.007992   -0.580494    2.047237
H      -2.319065   -0.759372   -0.267893
