20

C       0.007829    1.475945   -0.061000
N      -0.075819    0.026270    0.040642
C       0.763773   -0.511261    1.104565
C      -1.392688   -0.477423    0.027072
C      -2.496548   -0.163127   -1.004565
C      -3.169672   -1.208787   -0.093974
C      -1.836509   -1.978309    0.139588
O      -1.958851   -1.987060    1.590757
C      -2.479492   -0.681784    1.194858
H       1.052510    1.767298   -0.208690
H      -0.566944    1.824967   -0.922700
H      -0.365121    1.998660    0.838732
H       0.476574   -0.148819    2.106438
H       0.700464   -1.600795    1.116320
H       1.803187   -0.220143    0.921405
H      -2.922154    0.843981   -0.982705
H      -2.292484   -0.469960   -2.034602
H      -4.162123   -1.649832   -0.154597
H      -1.444824   -2.863659   -0.362239
H      -2.858773   -0.013881    1.967859
