22

C      -0.188277    1.545148    0.055834
C       0.000264    0.029889   -0.074532
C       0.682337   -0.587849    1.139387
C      -0.104206   -0.668558    2.498482
O      -1.512037   -0.592398    2.388963
C       0.463163   -2.101597    2.716485
C       0.877839   -2.112589    1.241813
C       0.553798   -3.123557    0.207247
N       1.941596   -2.933427    0.681228
H       0.771613    2.054182    0.198041
H      -0.658393    1.964296   -0.839084
H      -0.826455    1.778469    0.912888
H      -0.976825   -0.443966   -0.226294
H       0.591707   -0.195507   -0.972580
H       1.643708   -0.086694    1.317905
H       0.167832    0.078691    3.246003
H      -1.814358   -1.321443    1.836943
H       1.325911   -2.123933    3.388500
H      -0.262888   -2.848982    3.049648
H       0.103095   -4.071584    0.491563
H       0.291133   -2.779448   -0.790173
H       2.471235   -2.400812   -0.006074
