19

N       0.408412   -1.151732    0.946098
C       0.277604   -0.098580    0.489532
C       0.084204    1.260761   -0.033262
C      -0.984082    1.998668    0.823925
O      -1.386968    3.174519    0.162781
C      -0.715372    4.372449    0.524796
C       0.821770    4.300152    0.466543
C       1.372799    3.311373   -0.579866
N       1.386903    1.905825   -0.169385
H      -0.353600    1.175332   -1.037256
H      -1.868154    1.358403    0.920452
H      -0.597406    2.194686    1.834065
H      -1.082600    5.110503   -0.194844
H      -1.037440    4.700413    1.525022
H       1.199269    5.309205    0.259973
H       1.231865    4.021320    1.445343
H       0.807740    3.388785   -1.515799
H       2.408782    3.580291   -0.811580
H       1.912694    1.803012    0.692950
