15

N       0.018220    0.600210    1.410516
C       0.096985    0.051582    0.267579
O       1.288381   -0.443275   -0.196833
C       1.446848   -0.623933   -1.583143
O       0.861609   -1.812021   -2.058068
C      -0.489592   -1.829699   -2.290255
N      -1.008302   -2.691974   -3.065451
C      -1.365834   -0.871261   -1.603186
C      -1.122067   -0.089425   -0.540185
H       0.936986    0.611842    1.858257
H       1.061043    0.242553   -2.131893
H       2.518363   -0.738084   -1.744901
H      -0.281527   -3.296041   -3.454861
H      -2.368571   -0.881380   -2.015484
H      -1.937810    0.500193   -0.137089
