19

C       0.084922    1.420381   -0.381124
C       0.054895   -0.046478   -0.018451
O       0.174668   -0.491009    1.097142
O      -0.128852   -0.803979   -1.116794
C      -0.208038   -2.247492   -0.900933
C      -0.732557   -2.895658   -2.196439
C       0.506533   -3.502436   -2.902456
C       1.551609   -3.507907   -1.814559
C       1.165018   -2.844371   -0.726247
H       0.881604    1.610945   -1.105712
H      -0.858511    1.709848   -0.852770
H       0.248541    2.013272    0.517936
H      -0.858626   -2.399962   -0.037260
H      -1.438214   -3.689264   -1.935683
H      -1.267933   -2.166000   -2.807070
H       0.306419   -4.505436   -3.295616
H       0.839284   -2.899855   -3.757971
H       2.514560   -3.992387   -1.938071
H       1.742469   -2.687248    0.175373
