14

C      -0.001646    1.575935    0.041970
C      -0.005411    0.046564   -0.010689
C       0.712154   -0.574828    1.187525
C       0.727124   -2.084198    1.167893
O       0.236381   -2.779460    0.315006
C       1.418100   -2.708530    2.322407
N       1.960068   -3.180278    3.228451
H       1.019331    1.973056    0.045330
H      -0.519517    1.996367   -0.824536
H      -0.503851    1.945931    0.942526
H      -1.032993   -0.329972   -0.044356
H       0.472183   -0.303087   -0.931826
H       1.757059   -0.237969    1.255391
H       0.257652   -0.264203    2.139804
