18

C       0.118897    1.378280   -0.262629
C       0.081395   -0.103688    0.099941
O       0.536753   -0.355120    1.427085
C      -1.316467   -0.691730   -0.064455
O      -1.874339   -0.539374   -1.403224
C      -2.201231   -1.934431   -1.433161
C      -0.964773   -2.770339   -1.398865
C      -1.528057   -2.204440   -0.108529
H       1.130529    1.775329   -0.142844
H      -0.204956    1.526352   -1.296267
H      -0.556189    1.953302    0.384834
H       0.775741   -0.653141   -0.544606
H       0.054048    0.233494    2.018301
H      -1.994449   -0.217703    0.662431
H      -3.159748   -2.220791   -1.849285
H      -1.119027   -3.838946   -1.513233
H      -0.045673   -2.390934   -1.835513
H      -1.827267   -2.823483    0.725009
