18

N      -0.057631   -1.146431   -0.352153
C      -0.028190   -0.002654   -0.192902
C       0.012489    1.443586    0.023899
C       1.422785    2.000748    0.064459
C       1.712482    3.517980    0.156278
C       2.962443    3.003776   -0.591278
C       3.714930    2.172889    0.468173
C       2.483623    1.372919    1.000323
O       2.113524    1.992046   -1.223959
H      -0.550768    1.938859   -0.773755
H      -0.491862    1.670058    0.970753
H       1.056852    4.098570   -0.494158
H       1.824895    3.983149    1.139086
H       3.527917    3.610314   -1.297130
H       4.466259    1.529020    0.007725
H       4.199155    2.790003    1.229460
H       2.271295    1.547056    2.058653
H       2.568377    0.298231    0.831080
