20

C      -0.296845    1.568245   -0.194619
C       0.152311    0.150674    0.183347
C       0.828468   -0.555865   -0.994420
C       2.096688   -1.404073   -1.045742
C       2.184966   -2.512945    0.038856
N       1.007056   -2.427652    0.946444
C       0.891160   -3.078357   -0.382077
C       0.760251   -1.978884   -1.486853
O       0.390501   -2.325072   -2.775888
H       0.553411    2.185102   -0.507552
H      -1.014974    1.554057   -1.022990
H      -0.777222    2.069663    0.651652
H       0.835934    0.192604    1.034094
H      -0.706441   -0.431944    0.527543
H       0.843019    0.072407   -1.887730
H       2.945099   -1.122080   -1.656278
H       3.094312   -3.010595    0.348742
H       1.108630   -3.174741    1.634789
H       0.578141   -4.107592   -0.502106
H      -0.559112   -2.183386   -2.863207
