21

C       0.247711    1.515193    0.288850
C       0.009082    0.026710    0.011701
C       0.658407   -0.410359   -1.307489
C       0.522818   -0.859581    1.161427
N      -0.133919   -0.613057    2.433473
C       0.516724   -0.106290    3.524031
C      -0.344077    0.062499    4.768073
O       1.699190    0.185761    3.515890
H       1.319097    1.729174    0.372097
H      -0.158524    2.133195   -0.518418
H      -0.225656    1.827779    1.223758
H      -1.076146   -0.136882   -0.075212
H       1.745718   -0.274939   -1.271001
H       0.461690   -1.466125   -1.523433
H       0.279200    0.180103   -2.147224
H       0.402046   -1.916560    0.889162
H       1.587598   -0.679281    1.333534
H      -1.112587   -0.833306    2.516050
H      -1.400511   -0.172403    4.612353
H       0.049233   -0.583952    5.557579
H      -0.254984    1.093864    5.118008
