17

C       0.012268    1.534054    0.021787
C       0.012553    0.028483   -0.003112
C       0.062418   -0.684189   -1.218233
N       0.156167    0.014502   -2.423237
C       0.079094   -2.085393   -1.208594
C       0.048488   -2.782823   -0.008216
C      -0.005391   -2.104003    1.205078
C      -0.022595   -0.717379    1.170868
F      -0.073444   -0.056927    2.340839
H       0.870239    1.938807   -0.527921
H      -0.893693    1.950105   -0.440751
H       0.054865    1.905672    1.045569
H      -0.281033    0.924091   -2.430098
H      -0.098781   -0.523596   -3.238437
H       0.118957   -2.622127   -2.151531
H       0.061600   -3.867468   -0.017504
H      -0.033597   -2.616255    2.158274
