19

O      -0.043603    1.407197    0.087747
C      -0.023911    0.005779   -0.136046
C      -1.384261   -0.596925    0.002336
C      -2.083231   -1.051273    1.244523
C      -1.930389   -2.006221    0.069607
C      -2.849288   -1.552455   -1.035325
C      -3.163402   -2.217972   -2.330727
C      -4.273723   -1.862957   -1.344525
O      -2.352776   -0.200569   -0.992937
H      -0.675627    1.780156   -0.537033
H       0.380252   -0.232277   -1.131997
H       0.648908   -0.423159    0.613280
H      -1.436913   -1.266925    2.089841
H      -3.057715   -0.643307    1.495729
H      -1.422029   -2.959461    0.126512
H      -3.081657   -1.615300   -3.228685
H      -2.893823   -3.261947   -2.455335
H      -4.762794   -2.662732   -0.798569
H      -4.915488   -1.027792   -1.603034
