13

N       0.335637    1.305510    0.256965
C       0.125643   -0.041941    0.081578
N      -1.039764   -0.620792    0.268945
O      -0.813018   -1.996029    0.072276
C       0.469213   -2.193251   -0.246012
C       1.126749   -1.007169   -0.253879
O       2.430555   -0.710773   -0.563400
C       3.400858   -1.144927    0.303074
O       4.554740   -0.955872    0.095226
H       1.071350    1.692907   -0.315762
H      -0.507740    1.861475    0.250409
H       0.775244   -3.208365   -0.445048
H       2.967108   -1.673005    1.170504
