22

C      -0.176144    1.393453   -0.438120
C      -0.101321   -0.083193   -0.203551
C      -1.094611   -0.935984    0.089856
C      -0.563602   -2.330471    0.378696
C       0.885161   -2.283250   -0.158165
C       1.244647   -0.780462   -0.191609
C      -2.544432   -0.651361    0.246082
C      -3.324204    0.124033   -0.752381
N      -3.526288   -1.331237   -0.634932
H       0.460846    1.927118    0.279578
H       0.200273    1.657304   -1.435173
H      -1.191608    1.780193   -0.338793
H      -0.593441   -2.529697    1.460393
H      -1.163270   -3.120380   -0.087869
H       1.582373   -2.876324    0.438971
H       0.908889   -2.686300   -1.175908
H       1.866099   -0.511064   -1.054644
H       1.815774   -0.474404    0.697970
H      -2.894722   -0.622315    1.278661
H      -4.167849    0.729587   -0.432227
H      -2.802051    0.501619   -1.626320
H      -3.019986   -1.790452   -1.389995
