17

C      -0.043204    1.492763    0.077037
C      -0.003861    0.038130    0.069702
C       0.030268   -1.165653    0.059438
C       0.032635   -2.608242    0.059803
C       0.231689   -3.406270    1.400473
C      -0.831822   -4.457775    0.927383
O      -1.750862   -5.020330    1.808668
C      -1.323762   -3.364893   -0.027328
O      -2.426016   -3.056695   -0.373520
H       0.604224    1.912699   -0.700538
H      -1.059279    1.861432   -0.101419
H       0.291070    1.894488    1.039984
H       0.709964   -3.007677   -0.705552
H       1.235234   -3.779767    1.600913
H      -0.137469   -2.832634    2.252403
H      -0.326438   -5.262813    0.378498
H      -2.545501   -4.472910    1.789759
