16

O      -0.062004    1.516616    0.006053
C       0.012550    0.115022    0.027951
C      -0.030193   -0.638113    1.400692
C      -1.504106   -0.154871    1.530547
C      -1.352902   -0.613350    0.048437
C      -0.589396   -1.867726    0.604527
C       0.278942   -2.646065   -0.256549
C       0.984153   -3.327126   -0.954208
H       0.831669    1.865374    0.074441
H       0.742822   -0.263333   -0.694633
H       0.737901   -0.672342    2.174723
H      -2.160843   -0.758049    2.162804
H      -1.646904    0.912052    1.687666
H      -2.110580   -0.616473   -0.735448
H      -1.222114   -2.523182    1.209341
H       1.607481   -3.923147   -1.573630
