13

C      -0.068061    1.463365    0.010959
C      -0.005980    0.012934    0.002875
C       0.059647   -1.190345   -0.003917
C       0.107425   -2.599790   -0.011700
N       1.201395   -3.305017   -0.022062
O       0.774261   -4.648608   -0.026624
C      -0.599110   -4.725877   -0.018730
O      -1.242034   -5.734082   -0.020200
N      -1.009368   -3.403167   -0.009230
H       0.938859    1.892870    0.003836
H      -0.602633    1.838732   -0.868087
H      -0.586176    1.829562    0.903624
H      -1.970266   -3.108734   -0.001823
