20

O      -0.018034    1.406628    0.141737
C       0.053281   -0.001011   -0.026210
C      -1.365129   -0.551927    0.070333
C      -1.433353   -2.069786   -0.073919
C      -2.869597   -2.599015   -0.103500
C      -2.923070   -2.566625   -1.582994
C      -1.345014   -2.604918   -1.537093
C      -1.522240   -4.118137   -1.341380
N      -2.934325   -3.884064   -0.886374
H       0.873251    1.762761    0.084605
H       0.495713   -0.262863   -1.001039
H       0.684144   -0.464044    0.750589
H      -1.779623   -0.250819    1.040616
H      -1.985114   -0.071091   -0.695978
H      -0.748709   -2.550227    0.638768
H      -3.661415   -2.440639    0.617812
H      -3.666596   -2.248106   -2.301092
H      -0.642837   -2.177784   -2.251263
H      -1.554818   -4.683444   -2.276267
H      -0.872668   -4.628723   -0.619778
