15

C       0.025356    1.487642   -0.049050
C      -0.305565    0.718658   -1.309792
C      -0.038437   -0.022359   -0.003735
C       1.384324   -0.363956   -0.483885
C       1.114147    0.366800   -1.829148
C       2.115609    1.436084   -1.336524
C       1.484286    1.905254   -0.082843
N       2.374372    0.709126   -0.037022
H      -0.728045    2.082189    0.449908
H      -1.223659    0.827728   -1.874174
H      -0.697608   -0.594692    0.636681
H       1.769796   -1.378153   -0.416022
H       1.240525   -0.115955   -2.794101
H       2.904770    1.934222   -1.889704
H       1.841628    2.772211    0.459258
