20

C      -0.240852    1.556595   -0.055162
C       0.063307    0.050603    0.040396
C       0.774880   -0.474959   -1.166947
C       2.032945   -0.900953   -1.308997
C       2.279894   -1.335881   -2.725634
C       2.690578   -2.797099   -2.892189
O       1.017334   -1.106185   -3.380584
C       0.113671   -0.601488   -2.483317
N      -1.089825   -0.303512   -2.748309
H       0.682253    2.138834   -0.140848
H      -0.862957    1.761901   -0.929003
H      -0.774405    1.895028    0.838035
H       0.663248   -0.156661    0.933021
H      -0.882673   -0.492417    0.148125
H       2.794864   -0.951611   -0.541147
H       3.024515   -0.691525   -3.215865
H       1.957762   -3.456405   -2.418943
H       2.761254   -3.052107   -3.952852
H       3.667500   -2.969631   -2.429495
H      -1.301509   -0.494636   -3.728538
