18

C      -0.083845    1.573490    0.194076
C      -0.018272    0.064912    0.022395
C       1.291640   -0.585050   -0.407409
C       0.773679   -0.735181    1.010099
N      -1.265040   -0.524196   -0.413332
C      -1.561726   -0.452769   -1.653486
N      -0.852866    0.140285   -2.677296
C      -2.828139   -1.026920   -2.076483
N      -3.822761   -1.481876   -2.449631
H       0.865167    1.959049    0.577881
H      -0.302057    2.081591   -0.751069
H      -0.873232    1.835594    0.905310
H       1.240965   -1.462735   -1.043193
H       2.158522    0.046360   -0.577556
H       1.291939   -0.208985    1.804364
H       0.371352   -1.702595    1.288229
H       0.127440    0.299897   -2.499167
H      -1.087322   -0.123927   -3.621246
