19

O      -0.053032    1.370549    0.141060
C      -0.001175   -0.024080   -0.006259
C      -0.454484   -0.641193   -1.301934
C      -1.325620   -0.731017   -0.059553
C      -1.482776   -2.045478    0.701071
C      -0.697656   -2.065527    2.026719
C       0.749101   -1.665655    1.831934
O       1.358397   -2.052063    0.586626
C       1.091692   -0.665825    0.809846
H       0.640415    1.752213   -0.409179
H      -0.768479    0.042098   -2.083462
H       0.045433   -1.543925   -1.635788
H      -2.179131   -0.061436   -0.045872
H      -2.541590   -2.225978    0.908458
H      -1.138124   -2.878869    0.082455
H      -1.143420   -1.371764    2.752295
H      -0.750743   -3.064825    2.474454
H       1.403573   -1.773519    2.696891
H       1.979303   -0.045725    0.944545
