19

O       0.057747    1.384497    0.098698
C       0.037558   -0.031872    0.015525
C      -1.423150   -0.478664    0.026780
C      -1.590509   -2.015933   -0.098693
C      -2.743507   -2.414923    0.866984
C      -2.415106   -3.667216    1.657919
O      -3.123800   -4.633867    1.759129
C      -2.857846   -1.195438    1.765664
C      -2.150248   -0.163621    1.311640
H       0.973878    1.674569    0.130936
H       0.523753   -0.386464   -0.907792
H       0.564961   -0.492192    0.866945
H      -1.916499    0.040203   -0.807422
H      -1.782504   -2.344377   -1.122056
H      -0.662244   -2.506205    0.225302
H      -3.685628   -2.608184    0.340029
H      -1.424351   -3.619594    2.171617
H      -3.487013   -1.192067    2.648861
H      -2.106869    0.819975    1.763947
