18

C       0.118749    1.538313   -0.050809
C       0.027183    0.021361    0.016507
O       0.703377   -0.520459   -1.121206
C       1.318526   -1.757272   -0.787426
C       1.518247   -1.715802    0.709541
O       2.132529   -0.498851    1.153985
C       0.700192   -0.616631    1.228826
C       0.072892   -0.545635    2.591962
H       1.162665    1.848929    0.038512
H      -0.274046    1.896379   -1.005849
H      -0.463348    1.999310    0.753590
H      -1.031024   -0.294806    0.012455
H       0.680986   -2.618260   -1.050188
H       2.253215   -1.832052   -1.353378
H       1.755112   -2.614281    1.273874
H       0.010279    0.491676    2.938234
H      -0.942273   -0.955738    2.575296
H       0.666983   -1.108028    3.316036
