17

C      -0.155593    1.485546    0.221398
C       0.118550    0.000773    0.041189
C       1.195739   -0.419904   -0.986191
O       1.999038   -1.070036    0.032376
C       1.052894   -0.726607    1.060013
C       1.695572    0.153087    2.131049
O       1.107980    0.602899    3.076932
C       0.460889   -1.984234    1.687404
O      -0.667903   -2.066565    2.087574
H       0.769411    2.069132    0.276953
H      -0.740650    1.864395   -0.622714
H      -0.722299    1.667522    1.138579
H      -0.822099   -0.543528   -0.063631
H       0.878155   -1.126546   -1.760211
H       1.739779    0.409877   -1.452132
H       2.773614    0.346233    1.932274
H       1.176965   -2.834016    1.717614
