18

C      -0.325097    1.475882    0.171901
C       0.110747    0.010697    0.002635
C       0.786986   -0.535786    1.221022
N       2.062436   -0.839985    1.224864
O       2.357899   -1.300023    2.500795
C       1.237404   -1.264556    3.254357
C       0.206606   -0.790358    2.503870
O      -1.095883   -0.572252    2.786649
C      -1.485181   -0.897725    4.111000
H       0.539565    2.120181    0.356466
H      -0.829397    1.831817   -0.731256
H      -1.015899    1.582252    1.012876
H      -0.768272   -0.606079   -0.219198
H       0.799803   -0.088900   -0.840825
H       1.335656   -1.601616    4.272324
H      -0.931188   -0.295400    4.843318
H      -2.550391   -0.677445    4.189388
H      -1.314155   -1.962084    4.320168
