26

C      -0.289813    1.473669   -0.007444
C      -0.073679   -0.038094   -0.130855
C       0.875970   -0.471592   -1.265312
C       2.308842    0.032309   -1.034079
C       0.822607   -2.001129   -1.436213
C       1.568639   -2.539642   -2.658545
N       1.384315   -3.983274   -2.779844
C       0.226037   -4.423051   -3.549932
C       1.602747   -4.553595   -4.102807
H       0.631083    2.003772    0.253726
H      -0.661276    1.897563   -0.947587
H      -1.026454    1.699308    0.770207
H       0.305399   -0.434158    0.821593
H      -1.046673   -0.520084   -0.290643
H       0.503822   -0.017607   -2.197115
H       2.969825   -0.220343   -1.868145
H       2.339887    1.119319   -0.918230
H       2.734340   -0.412449   -0.126030
H       1.219870   -2.490651   -0.537626
H      -0.227291   -2.311960   -1.514575
H       1.227747   -2.006151   -3.567279
H       2.644971   -2.356509   -2.567718
H      -0.301896   -5.291058   -3.165306
H      -0.413473   -3.659018   -3.991051
H       1.877203   -3.877277   -4.911499
H       2.101378   -5.518537   -4.128427
