13

O      -0.065552    1.277438    0.132244
C      -0.046918   -0.038737   -0.057983
N       0.032043   -0.559006   -1.256730
O       0.017481   -1.941524   -0.975546
C      -0.060476   -2.071436    0.348487
C      -0.122008   -3.440064    0.926404
C      -1.386142   -3.663923    1.765320
O      -1.959280   -4.715720    1.815217
N      -0.106392   -0.934914    0.981692
H      -0.121276    1.430268    1.083538
H      -0.059957   -4.200504    0.146961
H       0.728819   -3.572671    1.608595
H      -1.715029   -2.776076    2.344338
