21

C      -0.026910    1.465570   -0.453374
O      -0.219238    0.070188   -0.471449
C       0.831051   -0.654640   -1.110530
C       2.058164   -0.809850   -0.196120
C       0.306553   -1.958345   -1.512279
C      -0.095118   -3.045413   -1.843921
C      -0.584221   -4.334774   -2.235193
C      -2.020396   -4.491279   -2.712946
C      -0.896682   -4.626055   -3.695672
H       0.827191    1.773300    0.168023
H       0.123262    1.869535   -1.467413
H      -0.934238    1.905357   -0.031949
H       1.136564   -0.103939   -2.017597
H       1.774999   -1.342178    0.715250
H       2.840353   -1.378087   -0.706736
H       2.467260    0.167026    0.076589
H      -0.186880   -5.169427   -1.664673
H      -2.549650   -5.384965   -2.402339
H      -2.625229   -3.593366   -2.748151
H      -0.737132   -3.820325   -4.402043
H      -0.646610   -5.613257   -4.067625
