13

N      -0.041186   -1.145233    0.521227
C      -0.009662   -0.015544    0.283281
C       0.027222    1.420997   -0.018799
C       1.413605    1.968452   -0.136249
C       2.129042    2.467396   -1.178674
C       3.405198    2.844253   -0.644844
C       3.361694    2.541673    0.677441
O       2.153856    2.008693    1.005074
H      -0.501212    1.593614   -0.961231
H      -0.531889    1.949058    0.763581
H       1.794420    2.554127   -2.200600
H       4.235365    3.279000   -1.178348
H       4.063962    2.636601    1.488738
