17

C      -0.167234    1.593967   -0.125833
C       0.029361    0.094818   -0.088342
O      -1.092279   -0.545565    0.461625
C       0.708327   -0.713496   -1.151546
C       1.942409   -0.008946   -1.715977
C       2.554882   -0.065401   -0.289724
O       3.688767   -0.035506    0.110433
C       1.315303   -0.597009    0.333294
O       1.248360   -1.389761    1.450670
H       0.683102    2.117318   -0.567521
H      -1.063128    1.830777   -0.708432
H      -0.314298    1.971777    0.889852
H      -0.791146   -1.093068    1.198034
H       0.219658   -1.576895   -1.582978
H       2.531453   -0.628988   -2.397416
H       1.798044    0.976223   -2.165139
H       2.011642   -1.979457    1.462450
