15

O       0.090190    1.543474    0.021032
C       0.022112    0.140281    0.009137
C       0.182934   -0.646311    1.348162
O       1.119573   -0.821930    2.073846
C      -1.204759   -1.207315    1.269029
C      -2.190877   -0.077514    1.109337
C      -1.390137   -0.429524   -0.101705
C      -1.999626   -1.037520   -1.302682
O      -3.105349   -1.522786   -1.327117
H       0.961767    1.794155    0.347801
H       0.695216   -0.304011   -0.743351
H      -1.528526   -2.215038    1.497844
H      -3.226368   -0.397449    1.069271
H      -2.009552    0.879148    1.585609
H      -1.347032   -1.037509   -2.203198
