14

C      -0.005476    1.477364    0.104463
C      -0.064873   -0.001959   -0.026373
C      -1.074460   -0.882398   -0.262638
C      -0.410162   -2.135472   -0.257805
O      -1.021495   -3.327909   -0.474312
C      -0.488995   -4.454151    0.115910
O      -0.921313   -5.532000   -0.132452
N       0.879935   -2.035589   -0.050359
O       1.098989   -0.669006    0.109494
H       0.653928    1.908798   -0.655398
H      -1.001957    1.906057   -0.013586
H       0.386832    1.765823    1.084813
H      -2.121862   -0.687590   -0.413965
H       0.326988   -4.213215    0.812069
