17

C       0.007304    1.473685    0.008984
C       0.031275   -0.030947    0.003057
N       1.158227   -0.630836   -0.008630
N      -1.208924   -0.698375    0.010853
C      -1.284856   -2.151577    0.006018
C      -2.760050   -2.425468    0.017878
C      -3.442332   -1.282145    0.028147
C      -2.501769   -0.131793    0.023661
O      -2.778694    1.045744    0.031115
H       1.042008    1.814992    0.001785
H      -0.527965    1.866277   -0.858427
H      -0.513651    1.859649    0.888004
H       1.068104   -1.646211   -0.011743
H      -0.799627   -2.575396   -0.884279
H      -0.784215   -2.582048    0.884515
H      -3.156650   -3.432136    0.017741
H      -4.512074   -1.131706    0.038238
