17

C      -0.858188    1.199462    0.318121
C      -0.094605   -0.067629   -0.049399
C       0.883948   -0.017694   -1.270309
C       2.023178   -0.653689   -0.392842
C       3.310032    0.023454   -0.385970
N       4.319261    0.586272   -0.416330
C       1.093383   -0.457497    0.808647
N       1.220491   -0.516783    2.064380
O       2.512834   -0.899685    2.434109
H      -0.179050    2.052412    0.412677
H      -1.603532    1.436570   -0.447788
H      -1.376207    1.074910    1.273148
H      -0.792628   -0.908693   -0.143063
H       0.601913   -0.594196   -2.151438
H       1.126824    1.003429   -1.568752
H       2.178879   -1.716440   -0.607926
H       2.482933   -0.846537    3.395869
