22

C      -0.301637    0.559809   -1.031949
O      -0.581708   -0.371423    0.010522
C      -1.849326   -0.428276    0.544835
C      -2.292684   -1.864851    0.693326
C      -2.641604   -2.515451   -0.634582
C      -1.562104   -3.087186   -1.518410
C      -2.517148   -4.008920   -0.801013
N      -2.592220    0.523241    0.918842
C      -2.147518    1.905732    0.929719
H       0.472083    0.102834   -1.653948
H      -1.189013    0.742521   -1.646027
H       0.070285    1.514227   -0.647622
H      -1.476341   -2.425960    1.165005
H      -3.153024   -1.882960    1.366334
H      -3.480725   -2.048303   -1.143482
H      -1.661473   -2.979518   -2.593088
H      -0.540943   -3.031511   -1.158418
H      -2.136536   -4.580145    0.039585
H      -3.271386   -4.527288   -1.382644
H      -1.082972    2.020319    1.170483
H      -2.336459    2.403067   -0.029776
H      -2.724974    2.445646    1.686170
