25

C      -0.240545    1.484385   -0.914045
C      -0.071580    0.075358   -0.327203
C       0.641357    0.136340    1.031835
C      -1.421711   -0.632352   -0.210379
C      -2.288132   -0.855117   -1.482783
C      -2.751250   -2.197300   -0.861841
O      -2.853058   -3.341243   -1.679465
C      -1.509183   -2.175661    0.069487
C      -0.347032   -3.023588   -0.447220
H       0.727114    1.986621   -1.017811
H      -0.710625    1.455885   -1.902028
H      -0.868285    2.106325   -0.264129
H       0.558302   -0.501562   -1.017744
H       0.057984    0.725330    1.750112
H       0.785037   -0.859988    1.460965
H       1.626185    0.606972    0.941554
H      -2.022048   -0.105577    0.543089
H      -3.047302   -0.109553   -1.733670
H      -1.665740   -1.041107   -2.364231
H      -3.670811   -2.051844   -0.275871
H      -3.610154   -3.228082   -2.262489
H      -1.715252   -2.445296    1.109775
H      -0.094340   -2.794798   -1.486403
H       0.550705   -2.873517    0.160498
H      -0.610791   -4.083929   -0.408238
