18

N       0.082648    1.409092    0.149493
C      -0.092601   -0.040824    0.030137
C      -1.521502   -0.382923    0.036508
N      -2.639307   -0.672045   -0.007424
C       0.580458   -0.657209   -1.213807
N       2.053839   -0.360749   -1.277064
C       2.310317   -1.804042   -1.522618
C       1.930923   -2.566106   -0.298649
C       0.851849   -2.164532   -1.284207
H       1.082870    1.590454    0.102906
H      -0.341692    1.875776   -0.648237
H       0.358203   -0.494211    0.920279
H       0.054775   -0.311291   -2.111234
H       2.263029    0.187793   -2.104474
H       3.020419   -2.140768   -2.267422
H       2.160904   -3.626496   -0.312538
H       2.023938   -2.092991    0.674853
H       0.208717   -2.889606   -1.763674
