13

O       0.991666    1.190526   -0.023330
C       0.425071   -0.025032   -0.033006
N       0.398854   -0.789486   -1.095359
O      -0.270826   -1.945779   -0.686177
C      -0.613299   -1.817283    0.602217
C      -0.207509   -0.620689    1.097806
C      -0.353470   -0.019972    2.465803
C      -1.058613   -0.903790    3.393171
N      -1.617106   -1.614826    4.111737
H       1.347901    1.363369   -0.905388
H      -1.141001   -2.648683    1.044057
H       0.630540    0.217278    2.889206
H      -0.894241    0.933182    2.412150
