19

C       0.015041    1.519004   -0.046432
C       0.038586    0.005269   -0.007440
C       0.474442   -0.700653   -1.295161
C       0.360400   -2.159373   -0.836340
O       0.586664   -3.164834   -1.458919
C      -0.106406   -2.015490    0.587085
C       0.646595   -0.785760    1.213805
C      -0.619267   -0.480727    2.050142
C      -1.136438   -0.828506    0.633630
H       1.010558    1.912251   -0.281310
H      -0.665991    1.872042   -0.829003
H      -0.304225    1.966558    0.897971
H      -0.182774   -0.500547   -2.148958
H       1.498583   -0.460070   -1.602079
H      -0.277402   -2.913346    1.178652
H       1.689011   -0.781482    1.540405
H      -0.858704   -1.198148    2.838820
H      -0.759710    0.541528    2.406512
H      -2.170555   -0.874038    0.284573
