17

O       0.273731    1.335466    0.055834
C       0.039903   -0.031848    0.058424
C      -0.444000   -0.817508    1.268968
C      -1.133824   -0.002601    2.305388
C      -2.250696    0.568040    1.848155
C      -2.554635    0.151658    0.409073
C      -2.846520    1.283581   -0.471587
C      -3.109995    2.221689   -1.175633
C      -1.317758   -0.676774    0.010272
H      -0.407891    1.768755    0.583313
H       0.806033   -0.524066   -0.532144
H       0.055055   -1.740346    1.544053
H      -0.732020    0.133065    3.303284
H      -2.893009    1.253524    2.387315
H      -3.436948   -0.505701    0.406029
H      -3.326877    3.045338   -1.809756
H      -1.472079   -1.504667   -0.671440
