16

O      -0.022645    1.440408   -0.001463
C       0.055160    0.017257   -0.048621
C       0.740291   -0.453806   -1.250432
C       1.347708   -0.793189   -2.229880
C       0.720133   -0.517189    1.231909
C      -0.017069   -0.189212    2.545004
O      -0.232994   -1.616585    2.786403
C       0.422447   -1.956320    1.619993
N       0.648972   -3.075267    1.104921
H       0.829622    1.788023   -0.287334
H      -0.987036   -0.324688   -0.065380
H       1.867554   -1.115941   -3.098257
H       1.785399   -0.274926    1.229057
H       0.581411    0.256264    3.342123
H      -0.964685    0.342443    2.435080
H       0.267497   -3.831535    1.676241
