15

C      -0.008910    1.375716   -0.037712
O      -0.026650   -0.035238    0.002278
C       0.610501   -0.589576    1.066020
C       1.267555    0.026557    2.105060
N       1.743389   -0.994575    2.928862
C       1.388767   -2.198296    2.410756
O       1.770765   -3.311724    3.086665
C       0.680188   -2.006105    1.248533
H       1.019520    1.760669   -0.088433
H      -0.552062    1.674661   -0.936045
H      -0.500905    1.806270    0.846026
H       1.444025    1.059710    2.341796
H       2.267927   -0.877049    3.776733
H       1.451597   -4.080143    2.604525
H       0.259858   -2.758607    0.601363
