21

C      -0.105236    1.604707   -0.011575
C       0.001376    0.084722   -0.055593
C       0.746984   -0.535566   -1.276381
C       0.347501   -1.997361   -1.666259
C       1.627002   -2.559269   -0.958993
C       1.799990   -1.191978   -0.322136
O       3.028989   -0.599692    0.068716
C       2.378304    0.069067    1.183028
C       1.024448   -0.622974    0.894571
H       0.855658    2.089740   -0.212102
H      -0.811871    1.960279   -0.769325
H      -0.459121    1.953020    0.965272
H      -1.000224   -0.342635    0.069895
H       1.019178    0.119392   -2.106059
H      -0.589102   -2.327995   -1.209351
H       0.293571   -2.190281   -2.738856
H       1.526033   -3.426762   -0.300258
H       2.425795   -2.756988   -1.681000
H       2.843065   -0.214295    2.133928
H       2.409677    1.159545    1.083086
H       0.629816   -1.239492    1.703482
