25

C       0.032837    1.577312    0.063678
C       0.019113    0.048498    0.033531
O       0.757899   -0.492149    1.129134
C      -1.403725   -0.522837   -0.024669
C      -1.446109   -2.049830   -0.132837
C      -2.867585   -2.621475   -0.122914
C      -2.901750   -4.148039   -0.240603
C      -4.314272   -4.716413   -0.226538
O      -4.222645   -6.128936   -0.343541
H       1.059910    1.947275    0.124776
H      -0.436730    1.997660   -0.831675
H      -0.518678    1.953281    0.935126
H       0.570290   -0.293948   -0.852008
H       0.342001   -0.178303    1.940200
H      -1.947906   -0.198325    0.876134
H      -1.931966   -0.071742   -0.875447
H      -0.936621   -2.359898   -1.055719
H      -0.864912   -2.478329    0.691453
H      -3.375560   -2.313624    0.802185
H      -3.445576   -2.177102   -0.945733
H      -2.409549   -4.466205   -1.167969
H      -2.336121   -4.602433    0.582151
H      -4.822462   -4.426694    0.708399
H      -4.896811   -4.285262   -1.057812
H      -5.113830   -6.489629   -0.334545
