18

C      -0.317950    1.269299   -0.846565
C      -0.037002    0.003471   -0.062369
C       1.107401   -0.857672   -0.487328
N       1.183466   -0.081783    0.763719
C      -1.225785   -0.628896    0.565805
C      -1.309371   -1.224959    1.798263
N      -2.611523   -1.663349    1.901921
C      -3.249924   -1.314245    0.750277
N      -2.445476   -0.689595   -0.077788
H       0.588141    1.631437   -1.343485
H      -1.084105    1.083305   -1.603547
H      -0.691802    2.060010   -0.186653
H       1.049317   -1.933668   -0.351973
H       1.699109   -0.534283   -1.340484
H       1.750001    0.750582    0.618816
H      -0.581456   -1.362730    2.578127
H      -3.015608   -2.141210    2.689479
H      -4.291887   -1.538244    0.576114
