20

C       0.002343    1.525893    0.027863
C       0.004889    0.018997    0.010889
N      -0.041634   -0.723286    1.062960
O      -0.111969    0.016690    2.247042
C       0.048996   -0.703945   -1.258089
C       0.029963   -0.159840   -2.485052
C       0.028469   -1.197662   -3.577429
C       0.391294   -2.501433   -2.821880
C       0.060296   -2.220121   -1.336203
H       0.719488    1.917271   -0.698221
H      -0.986500    1.911098   -0.245828
H       0.251968    1.902377    1.018593
H      -0.105432   -0.675860    2.915966
H      -0.024575    0.902241   -2.695345
H      -0.964557   -1.257967   -4.047360
H       0.730993   -0.966387   -4.386570
H      -0.130783   -3.377730   -3.214076
H       1.464200   -2.692030   -2.926573
H       0.779046   -2.666924   -0.644298
H      -0.922446   -2.615954   -1.048677
