16

O       0.056797    1.416005    0.015825
C       0.028533    0.020860    0.001994
C       0.475701   -0.728478   -1.285327
C      -0.687502   -1.727824   -1.069787
O      -0.383545   -2.689789   -0.035193
C      -0.747096   -1.747123    0.997990
C       0.401210   -0.752620    1.298771
C      -1.339111   -0.758756   -0.044684
H       0.977854    1.699569    0.041488
H       0.272311   -0.094116   -2.154393
H       1.487816   -1.139013   -1.341985
H      -1.166188   -2.190076   -1.934433
H      -1.274576   -2.225198    1.824812
H       1.408594   -1.164679    1.406060
H       0.147755   -0.134373    2.166282
H      -2.334091   -0.324381   -0.069316
