20

C      -0.230190    1.523924   -0.014233
C      -0.004679    0.040856    0.164013
N       1.192511   -0.696362   -0.318745
C       2.393623    0.168734   -0.028015
C       2.107056    0.207753    1.483187
C       0.852229   -0.618160    1.177670
C       0.425868   -1.817290    1.972631
C       3.631639   -0.592439   -0.451891
O       4.562517   -0.851604    0.265835
H       0.594834    2.139514    0.350593
H      -0.391282    1.764155   -1.070990
H      -1.129153    1.825253    0.533551
H      -0.888449   -0.544474   -0.087696
H       2.390122    1.121821   -0.575061
H       2.863997   -0.347264    2.040187
H       1.960846    1.182085    1.956594
H      -0.008794   -1.509613    2.931371
H      -0.325864   -2.398498    1.430831
H       1.276685   -2.473135    2.185340
H       3.604949   -0.915104   -1.515981
