15

N       0.029341    1.093357   -0.036756
H       0.183585    0.374894   -0.726200
H       0.792579    1.278117    0.592647
C      -1.222273    1.433623    0.340746
N      -2.310029    0.925255   -0.200881
C      -3.560945    1.545008   -0.084961
C      -4.800029    0.961789    0.237800
C      -5.768591    1.990774    0.210019
O      -6.949395    2.106559    0.428769
O      -5.008245    3.220732   -0.178774
C      -3.725849    2.890606   -0.333666
H      -3.061608    3.596811   -0.811780
H      -1.355308    2.235471    1.055406
H      -2.259307    0.037880   -0.693797
H      -4.995817   -0.037299    0.589291
