22

C       0.116489    1.385108   -0.356587
C      -0.041833   -0.019514    0.242138
C      -1.443752   -0.597481    0.095573
C      -2.500771    0.123489    0.921363
C      -1.973639   -1.133753   -1.213586
C      -0.897557   -1.853771   -2.039403
C      -0.643822   -2.823011   -0.839692
C      -1.712215   -2.080402   -0.028398
H       1.148796    1.736565   -0.261436
H      -0.142682    1.388645   -1.420754
H      -0.525792    2.117371    0.142332
H       0.692885   -0.682624   -0.223432
H       0.215797    0.006860    1.309683
H      -2.599946    1.173244    0.626143
H      -3.483178   -0.344227    0.801453
H      -2.247852    0.099932    1.987870
H      -2.923690   -0.791921   -1.609865
H      -1.312420   -2.374731   -2.905144
H      -0.052670   -1.246494   -2.380010
H      -0.943696   -3.846551   -1.075972
H       0.366967   -2.854175   -0.419682
H      -2.432375   -2.563698    0.623178
