16

O       0.079298    1.449811   -0.117735
C       0.068959    0.033558   -0.009115
C       0.665306   -0.473131    1.292602
C      -0.170599   -1.232253    1.997747
C      -1.505237   -1.380033    1.313043
N      -2.576869   -0.476604    1.775840
C      -2.448613    0.423622    0.736933
O      -2.996438    1.460777    0.494588
C      -1.384739   -0.483408    0.043438
H       0.988457    1.734912   -0.253789
H       0.592931   -0.409850   -0.870663
H       1.672841   -0.201283    1.593332
H       0.046923   -1.684412    2.959607
H      -1.839627   -2.413702    1.184930
H      -2.999946   -0.359033    2.685631
H      -1.733915   -0.909706   -0.896340
