22

C      -0.432069    1.444512   -0.063978
C       0.094465    0.010002    0.091011
C       0.853286   -0.484497   -1.106068
N       0.160597   -0.891987   -2.359988
C       1.041101   -1.857765   -1.652196
C       2.465598   -1.547114   -2.114030
C       2.287877   -0.093476   -1.533915
C       2.469468    1.082288   -2.484301
O       3.817944    1.214683   -2.920686
H       0.389569    2.155126   -0.198112
H      -1.090437    1.531086   -0.933971
H      -0.996452    1.751732    0.821616
H       0.743151   -0.048347    0.974689
H      -0.744968   -0.672388    0.282327
H      -0.799455   -1.122614   -2.101315
H       0.644610   -2.803273   -1.300529
H       3.234686   -2.119601   -1.591936
H       2.620929   -1.628098   -3.195142
H       2.929283    0.042847   -0.657628
H       1.777119    0.980570   -3.330308
H       2.233535    2.022719   -1.973538
H       4.022642    0.443603   -3.459182
