20

C      -0.109850    1.500726    0.039418
C       0.024166   -0.017095   -0.001911
C       0.840462   -0.589920   -1.201371
C       2.116797   -0.457179   -0.326332
C       1.161495   -0.613756    0.892918
C       0.882308   -2.096754    1.094584
O       0.921541   -2.667058    2.166674
N       0.576120   -2.736323   -0.081053
C       0.500851   -2.071718   -1.377844
H       0.849340    2.008767   -0.101898
H      -0.788302    1.849934   -0.746864
H      -0.518736    1.827257    1.001285
H      -0.961760   -0.472499    0.143654
H       0.796680   -0.068107   -2.160592
H       2.904481   -1.204484   -0.453281
H       2.557491    0.539394   -0.379518
H       1.403791   -0.148230    1.847610
H       0.378118   -3.722648   -0.008095
H      -0.508790   -2.175453   -1.800343
H       1.201921   -2.538639   -2.083829
