18

O       0.150809    1.232695   -0.295875
C      -0.067924   -0.119692   -0.067761
C      -0.677176   -0.987992   -1.136551
C      -1.462478   -0.647487    0.119938
C      -1.455478   -1.657546    1.256855
C       0.029033   -2.060526    1.422510
C       0.826009   -0.803804    0.977821
C       2.171454   -1.096147    0.487357
N       3.228471   -1.313365    0.071909
H       0.898624    1.320681   -0.898338
H      -0.979195   -0.465542   -2.037207
H      -0.315048   -1.997760   -1.300759
H      -2.302830    0.028697    0.014528
H      -1.826196   -1.177295    2.169735
H      -2.090281   -2.529150    1.068504
H       0.279943   -2.359023    2.442200
H       0.278873   -2.902565    0.772252
H       0.919480   -0.100885    1.814627
