17

C       0.088946    1.127421    0.517119
O      -0.129817    0.088811   -0.427390
C      -1.329456   -0.568070   -0.239727
C      -1.430919   -1.963608   -0.792741
C      -0.253816   -2.593406   -1.453145
O      -0.358782   -3.340195   -2.395098
C      -1.412571   -1.722721    0.739653
C      -0.279235   -2.099820    1.530881
C       0.649419   -2.412964    2.228390
H       1.044649    1.588095    0.261016
H      -0.703466    1.887654    0.458778
H       0.135094    0.732992    1.539017
H      -2.217560    0.061570   -0.321417
H      -2.381447   -2.264587   -1.218287
H       0.729685   -2.331674   -1.020505
H      -2.375493   -1.872398    1.219845
H       1.473120   -2.696947    2.835506
