11

O       0.106819    1.316945    0.028892
C       0.069986   -0.019569    0.037224
N       0.106960   -0.769809   -1.042589
N       0.045900   -2.028936   -0.538496
C       0.061631   -3.141127   -1.403523
O       0.011300   -4.277740   -1.038981
N      -0.027287   -2.107193    0.797131
C      -0.013900   -0.849563    1.190356
H       0.163670    1.612266   -0.889127
H       0.126621   -2.789264   -2.445446
H      -0.061729   -0.573528    2.231457
