17

C      -0.078530    1.341195    0.098015
O      -0.050351   -0.078422   -0.007089
C      -1.255392   -0.686069   -0.033062
N      -2.423111   -0.061880    0.012203
N      -3.339056   -1.056880   -0.074323
C      -4.737753   -0.751627    0.100622
C      -2.760150   -2.290273   -0.147540
C      -1.398777   -2.088061   -0.133089
O      -0.413432   -3.023890   -0.215466
H       0.963033    1.665508    0.108462
H      -0.604675    1.785470   -0.753561
H      -0.581456    1.654821    1.018997
H      -5.337272   -1.551001   -0.341036
H      -5.005519   -0.649747    1.159591
H      -4.960805    0.187642   -0.409260
H      -3.341820   -3.194961   -0.212838
H       0.427639   -2.553827   -0.197751
