16

C      -0.349420    1.285924    0.146195
C       0.124339   -0.155248   -0.133046
C       0.885805   -0.239749   -1.382697
N       1.504553   -0.306757   -2.356493
C       0.983531   -0.666671    1.016442
O       0.296062   -1.004350    2.200619
C       0.948098   -2.070502    1.507513
C       0.082469   -3.109477    0.859613
O      -1.073999   -2.946894    0.563278
H       0.499352    1.968856    0.242040
H      -0.987641    1.642876   -0.664867
H      -0.921052    1.299155    1.077022
H      -0.748224   -0.810386   -0.216072
H       1.919490   -0.124595    1.164376
H       1.844497   -2.456498    1.993204
H       0.608303   -4.066804    0.656250
