21

C       0.088343    1.553236   -0.351862
C       1.617280    1.412963   -0.161100
C       1.362935    0.124523    0.694264
C       1.521735    0.366089    2.160832
C       0.695003    0.173938    3.187626
C      -0.706553   -0.357473    3.259216
C      -1.554001   -0.570852    2.040204
C      -1.293259   -0.407834    0.743669
C      -0.056206    0.048119    0.050329
H      -0.356459    2.200574    0.408185
H      -0.283633    1.850444   -1.335166
H       2.132115    1.183631   -1.098130
H       2.139115    2.234526    0.335060
H       2.010577   -0.717541    0.419239
H       2.512574    0.750040    2.409844
H       1.091575    0.415648    4.173641
H      -0.672656   -1.308358    3.819292
H      -1.275336    0.302002    3.935429
H      -2.558641   -0.909100    2.293448
H      -2.116588   -0.617933    0.060083
H       0.045750   -0.542106   -0.869456
