19

C       0.054425    1.511653   -0.242978
C       1.484980    1.578296    0.402227
C       1.437799    0.033876    0.562223
O       0.962403   -0.397172    1.865953
C      -0.386586   -0.539823    1.339332
C       0.038048   -0.034797   -0.055400
C       0.100267   -1.004742   -1.241836
C       1.551227   -1.477049   -1.193595
C       2.281534   -0.917916   -0.219905
H      -0.730851    2.056541    0.287713
H       0.034181    1.817063   -1.292188
H       2.265274    1.946084   -0.268152
H       1.549861    2.108282    1.354208
H      -0.720324   -1.585396    1.367748
H      -1.106040    0.081231    1.887963
H      -0.599200   -1.846812   -1.154392
H      -0.129476   -0.516495   -2.198025
H       1.933793   -2.203491   -1.905029
H       3.329092   -1.122105   -0.028084
