21

C       0.116977    1.490695    0.049389
C       0.095129   -0.004179   -0.011521
C      -0.034161   -0.768116   -1.099158
C      -0.013369   -2.247340   -0.805620
C       1.164959   -3.014057   -1.445740
C       2.280216   -2.781054   -0.425600
O       1.637593   -2.816808    0.843283
C       0.307947   -2.304278    0.722379
C       0.192797   -0.849725    1.239401
H       1.049318    1.853127    0.500829
H       0.021455    1.939445   -0.943153
H      -0.698483    1.873246    0.676788
H      -0.140488   -0.385226   -2.109966
H      -0.969771   -2.721658   -1.052760
H       0.933260   -4.081715   -1.514803
H       1.416154   -2.651790   -2.446346
H       3.053013   -3.555232   -0.430852
H       2.766330   -1.807480   -0.593133
H      -0.342660   -2.984947    1.279750
H       1.060911   -0.601588    1.861522
H      -0.694506   -0.713308    1.873507
