18

C       0.126050    1.535415   -0.040706
C       0.005038    0.041896    0.032311
C      -0.897505   -0.709504    0.971976
C       0.589799   -0.951510    1.037765
C       1.088720   -1.841184   -0.136269
C       0.507218   -0.885290   -1.124965
N      -0.034823   -2.234015   -0.970925
C       0.024791   -3.219462   -1.937613
O       0.562388   -4.292985   -1.806100
H       1.113714    1.842503   -0.404606
H      -0.624947    1.964584   -0.715380
H      -0.018814    1.985889    0.946111
H      -1.289574   -0.110655    1.788531
H      -1.562716   -1.484834    0.610370
H       1.184062   -0.751020    1.919647
H       2.011580   -2.403791   -0.178372
H       0.906095   -0.554018   -2.076794
H      -0.548969   -2.932271   -2.840248
