18

O      -0.169704    1.395904    0.139261
C      -0.049275   -0.011824    0.005046
C      -1.427680   -0.598072    0.020680
C      -2.669978   -0.243324   -0.857173
C      -3.137478   -1.283377    0.205914
C      -1.843797   -2.093087   -0.091813
N      -2.333107   -0.545421    1.243167
C      -2.772951    0.585354    1.894370
O      -3.922704    0.780420    2.225479
H       0.713173    1.773863    0.192089
H       0.438542   -0.291079   -0.942482
H       0.535696   -0.452216    0.826910
H      -3.063931    0.767046   -0.747935
H      -2.647577   -0.572436   -1.899700
H      -4.140443   -1.645000    0.416461
H      -1.767538   -2.543856   -1.082375
H      -1.493280   -2.748175    0.706526
H      -1.937470    1.258136    2.162636
