17

O      -0.033178    0.555406    1.378391
C      -0.079560    1.337459    0.448343
C      -1.406368    1.949678    0.033346
C      -1.628350    2.187949   -1.463772
C      -0.855397    3.381718   -2.033728
C       0.638327    3.203357   -2.244549
O       1.186435    3.725398   -3.196285
C       1.492514    2.421282   -1.306140
C       1.205175    1.674431   -0.228264
H      -2.176433    1.293033    0.446462
H      -1.497233    2.906981    0.567980
H      -1.397811    1.278811   -2.032156
H      -2.695666    2.377744   -1.616779
H      -1.256464    3.683782   -3.004683
H      -0.982287    4.245853   -1.364633
H       2.534763    2.482629   -1.611031
H       2.032517    1.177188    0.272993
