16

O       0.015986   -0.086029    0.251286
C       0.027079    1.110788    0.049916
N      -1.163683    1.804318   -0.109414
C      -1.417268    3.140441   -0.422026
C      -0.521411    4.112094   -0.628588
C       0.953547    3.884512   -0.504094
C       1.501536    2.702962   -1.350031
C       1.327884    1.907425   -0.039936
O       1.261648    3.132417    0.715975
H      -1.964529    1.196394   -0.015035
H      -2.478832    3.348249   -0.497493
H      -0.887513    5.103935   -0.863572
H       1.515006    4.820981   -0.539593
H       0.933208    2.397257   -2.229076
H       2.555100    2.826230   -1.602777
H       2.134441    1.248710    0.286253
