16

N      -0.464466   -1.236957    0.114325
C      -0.270071   -0.098881    0.027414
C      -0.035779    1.296851   -0.080262
C      -0.534800    2.450832    0.763063
C       0.922311    2.768391    1.268170
C       1.309443    2.072036   -0.045461
C       1.424032    2.863471   -1.129406
C       0.097677    2.922849   -1.876880
C      -0.824848    2.355928   -0.780592
H      -1.394355    2.399705    1.426423
H       1.232571    3.809906    1.381143
H       1.102590    2.212079    2.193808
H       2.092646    3.719479   -1.141569
H      -0.105979    3.966731   -2.141497
H      -0.001105    2.332229   -2.797690
H      -1.877553    2.181251   -0.992441
