16

N      -0.024874    1.417951    0.153063
C      -0.004033    0.019286    0.064066
C      -1.199174   -0.708486    0.018992
C      -1.162323   -2.100708   -0.006103
C       0.050358   -2.757315    0.015651
F       0.101373   -4.108280   -0.024874
C       1.264830   -2.063699    0.063322
N       2.461202   -2.773553    0.140456
C       1.215614   -0.668136    0.082990
H       0.804600    1.869171   -0.205873
H      -0.856334    1.841221   -0.234149
H      -2.151649   -0.189740    0.007040
H      -2.074151   -2.685546   -0.049254
H       2.387241   -3.726375   -0.185006
H       3.262302   -2.298529   -0.248230
H       2.146604   -0.109385    0.128614
