20

C      -1.639674   -2.211435    0.547832
C      -0.278657   -1.765917    0.021263
O      -0.458823   -0.602835   -0.823703
C      -0.500415   -0.786972   -2.153946
O      -0.694014    0.101783   -2.928249
C       0.656134   -1.362280    1.138347
C       1.565927   -2.375689    1.751142
N       2.103305   -1.260938    0.987852
C       2.738215   -1.538637   -0.291656
H      -2.106971   -1.406467    1.122496
H      -2.307982   -2.474224   -0.277174
H      -1.528909   -3.084487    1.197239
H       0.167171   -2.566749   -0.580384
H      -0.327853   -1.841830   -2.448823
H       0.235813   -0.585125    1.775518
H       1.761248   -2.373258    2.820183
H       1.583501   -3.364740    1.290656
H       2.337353   -2.415166   -0.826219
H       2.643665   -0.662623   -0.939689
H       3.802879   -1.720536   -0.116389
