15

O       0.035141   -0.042749   -0.372702
C       0.027236    1.084138    0.056536
C       1.238261    1.948627    0.074428
C       1.111387    3.456730   -0.158815
C      -0.155550    4.073071   -0.420807
C      -1.200615    4.617395   -0.657632
C       1.465753    2.931654    1.226286
C       0.545721    3.033977    2.320232
C      -0.198666    3.132775    3.258668
H      -0.890904    1.548226    0.467373
H       2.122238    1.471016   -0.332788
H       1.945262    3.889061   -0.704126
H      -2.127780    5.093084   -0.862456
H       2.509463    3.053067    1.501151
H      -0.862491    3.218237    4.083228
