18

C      -0.223391    1.562647   -0.113587
C       0.163687    0.082696   -0.054912
N       0.813899   -0.391757   -1.259988
C       0.144385   -0.599167   -2.529838
C       1.235670   -1.198649   -3.409451
N       1.065398   -1.508087   -4.627787
N       2.342751   -1.296614   -2.586492
C       2.112960   -0.830181   -1.280408
O       2.919235   -0.829418   -0.378408
H       0.661235    2.188291   -0.262872
H      -0.927886    1.765118   -0.926810
H      -0.703529    1.862444    0.822881
H       0.872155   -0.094768    0.757956
H      -0.726651   -0.531695    0.139113
H      -0.702180   -1.292934   -2.443433
H      -0.230189    0.331274   -2.971358
H       1.913533   -1.895642   -5.043377
H       3.242377   -1.659832   -2.853838
