18

C      -0.060397    1.546556   -0.020811
C       0.008705    0.036173    0.013596
C       1.326327   -0.679430   -0.190250
C       0.661761   -0.695801    1.162254
N       1.274076    0.074365    2.209853
C       0.648691   -0.000183    3.526455
C       1.948268   -0.678848    3.262261
H       0.808047    1.984032    0.476325
H      -0.091525    1.913133   -1.052787
H      -0.957253    1.914117    0.490685
H      -0.861472   -0.464815   -0.403594
H       1.351463   -1.594689   -0.771412
H       2.212717   -0.059931   -0.277541
H       0.196616   -1.636419    1.473459
H       0.612858    0.928865    4.088374
H      -0.229866   -0.633848    3.637221
H       1.937706   -1.765527    3.195405
H       2.879142   -0.254216    3.627616
