22

C      -0.061166    1.586782   -0.040106
C      -0.000049    0.084640    0.003000
C       0.038536   -0.662148   -1.105919
C       0.123588   -2.149160   -1.068702
N       1.330575   -2.779553   -1.654647
C       1.126238   -2.816556   -0.192743
C       2.077903   -1.966927    0.626885
C       1.391249   -1.189876    1.767812
C       0.025729   -0.567885    1.377060
H       0.787092    2.030290    0.498101
H      -0.049490    1.966594   -1.065257
H      -0.967604    1.960235    0.454153
H       0.017112   -0.190276   -2.086423
H      -0.815561   -2.679981   -1.232641
H       1.076606   -3.675617   -2.063670
H       0.833003   -3.769231    0.246149
H       2.884421   -2.587854    1.034566
H       2.548388   -1.262312   -0.063229
H       1.227726   -1.844361    2.632531
H       2.075081   -0.403838    2.108947
H      -0.262024    0.160775    2.142571
H      -0.734313   -1.355881    1.407276
