16

O      -0.326779    1.141415   -0.895825
N      -0.040104   -0.128119   -0.365054
C      -0.998976   -0.537022    0.368702
C      -2.295130    0.209994    0.597363
O      -3.183123   -0.543941    1.403347
C      -3.439044   -1.827934    0.873039
C      -2.170361   -2.681868    0.782966
O      -2.200198   -3.861354    0.543098
C      -0.887566   -1.887267    1.023319
H       0.452365    1.321327   -1.432393
H      -2.110886    1.152941    1.120713
H      -2.748162    0.462738   -0.374904
H      -4.157217   -2.319923    1.534205
H      -3.891727   -1.773616   -0.131983
H      -0.018431   -2.441851    0.669996
H      -0.802668   -1.754319    2.112535
