18

C       0.557142    1.407569    0.050126
C       0.099159   -0.016920   -0.063235
C      -0.052853   -0.658736   -1.220603
C      -0.509519   -2.084965   -1.331097
N      -0.383606   -2.804026   -0.070910
C      -0.124402   -2.241463    1.130124
O       0.192534   -2.880003    2.123871
C      -0.271545   -0.718443    1.227257
O       0.491215   -0.262449    2.316477
H       1.446440    1.470628    0.683859
H       0.782339    1.832416   -0.931237
H      -0.208720    2.027613    0.532434
H       0.133864   -0.151552   -2.162857
H      -1.549569   -2.124784   -1.694007
H       0.092793   -2.606719   -2.086420
H      -0.295110   -3.809311   -0.098884
H      -1.346468   -0.525356    1.417826
H       0.635005   -1.058614    2.855351
