15

O       0.128691    1.351856   -0.405794
C       0.007269    0.019060   -0.074831
C      -0.403771   -0.982065   -1.150030
C      -1.325289   -0.732628    0.006362
C      -1.256277   -1.765146    1.126908
C       0.200554   -1.766910    1.595234
O       0.743076   -2.558106    2.314999
C       0.867050   -0.489316    1.012427
O       1.837216    0.079355    1.453867
H       0.909248    1.669488    0.072320
H      -0.644427   -0.497259   -2.089544
H       0.102013   -1.938554   -1.244565
H      -2.243356   -0.183821   -0.165523
H      -1.873754   -1.464978    1.982894
H      -1.575940   -2.768961    0.829396
