17

C      -0.124911    1.503399   -0.392223
C       0.183485    0.071006   -0.037910
N       1.373265   -0.358429    0.017727
N      -0.992869   -0.688358    0.212158
C      -1.059813   -2.014953    0.564772
O      -0.089345   -2.736438    0.699594
C      -2.470871   -2.560133    0.761337
C      -2.701566   -3.784048   -0.119718
O      -3.724983   -3.987306   -0.714950
H       0.811588    2.029312   -0.571289
H      -0.747220    1.562027   -1.292978
H      -0.667688    2.002979    0.418889
H       1.390887   -1.347158    0.270099
H      -1.868953   -0.197521    0.123744
H      -2.528520   -2.903295    1.802690
H      -3.270621   -1.836561    0.588099
H      -1.838819   -4.479118   -0.157779
