19

C      -0.290255    1.401638    0.145683
N       0.042532   -0.018163    0.227849
C       1.354443   -0.481342   -0.256811
C       2.339329    0.463237   -0.722125
N       3.121989    1.221340   -1.111773
C       1.000630   -0.522290    1.210611
C       1.687538    0.384523    2.210489
C       0.556806   -1.864954    1.776892
O      -0.516406   -1.695971    2.684147
H       0.564344    2.084295    0.225884
H      -0.780035    1.584175   -0.815049
H      -1.002044    1.635512    0.942336
H       1.328682   -1.398371   -0.841175
H       1.950548    1.358987    1.798053
H       1.033514    0.526113    3.075635
H       2.610912   -0.085798    2.562753
H       0.283123   -2.539339    0.953071
H       1.371325   -2.329148    2.342549
H      -1.249867   -1.336336    2.171477
