16

C       0.021285    1.500275    0.083521
C       0.059836    0.008675   -0.038737
C      -0.718828   -1.099587    0.692436
N      -0.267996   -2.087562   -0.386010
C       1.066921   -2.217866    0.344494
C       0.713329   -0.911099    1.047951
O       1.303095   -0.302577    2.127496
C       0.021852   -0.884157   -1.228812
O       0.078497   -0.782430   -2.412712
H       0.905919    1.943798   -0.384135
H      -0.863775    1.915211   -0.407472
H       0.015317    1.800346    1.134412
H      -1.685037   -1.083957    1.174007
H       1.046806   -3.088192    1.007429
H       1.940257   -2.261235   -0.314594
H       1.110072   -0.817158    2.919490
