15

O      -0.091507    1.358564   -0.308601
C       0.013842   -0.003937    0.112570
C      -1.385057   -0.561116    0.067047
O      -2.283965    0.152903    0.864535
C      -1.905736   -1.177519   -1.223757
C      -1.618596   -2.029269   -0.001544
O      -0.493890   -2.861877    0.027071
H       0.698320    1.824817   -0.021733
H       0.684340   -0.580984   -0.534656
H       0.391295   -0.064266    1.143186
H      -2.152603    1.079676    0.625032
H      -2.943507   -0.997534   -1.479644
H      -1.216794   -1.251510   -2.058679
H      -2.481833   -2.388177    0.558431
H      -0.656846   -3.596379   -0.573880
