16

C       0.018407    1.393468    0.051960
O      -0.007825   -0.029790    0.016439
C      -1.226027   -0.616903    0.001228
N      -2.318369    0.131146    0.019393
C      -3.508099   -0.479780    0.003606
C      -3.653494   -1.861589   -0.030942
O      -4.916018   -2.381674   -0.044509
C      -2.492020   -2.641182   -0.049864
C      -1.257854   -2.017811   -0.033741
H       1.074941    1.666345    0.059253
H      -0.477106    1.821993   -0.824616
H      -0.477920    1.777759    0.948361
H      -4.392901    0.150845    0.018938
H      -4.862645   -3.342297   -0.068358
H      -2.558043   -3.726019   -0.076967
H      -0.332160   -2.579609   -0.047334
