20

N      -0.113120   -1.185617    0.047615
C      -0.085129   -0.030271    0.027918
C      -0.022897    1.429513    0.000907
C       1.426586    1.979342    0.028432
C       1.413135    3.505090   -0.160540
C       2.791132    4.109441    0.131534
C       3.212352    3.837626    1.583124
C       2.917011    2.419891    1.996866
C       2.140831    1.589448    1.301571
H      -0.534752    1.779205   -0.903199
H      -0.584617    1.818582    0.858263
H       1.952032    1.522987   -0.823551
H       1.088378    3.752748   -1.177632
H       0.673400    3.944270    0.523326
H       3.528821    3.665285   -0.548753
H       2.785737    5.185726   -0.069202
H       4.281715    4.045253    1.713575
H       2.697044    4.531088    2.264718
H       3.380307    2.069563    2.916442
H       1.994310    0.568205    1.645525
