20

C       0.294652    1.343121   -0.752318
C      -0.041111    0.031719   -0.043241
C      -1.443165   -0.462052   -0.487006
O      -2.429248   -0.387095    0.526048
C       1.132027   -1.002781    0.117407
N       1.793397    0.004239    1.036908
C       0.337398   -0.053368    1.479804
C       0.442709   -1.594818    1.393745
O      -0.741262   -2.363364    1.377034
H       1.265309    1.736589   -0.454658
H       0.293443    1.194764   -1.838809
H      -0.476813    2.089069   -0.529107
H      -1.796431    0.189649   -1.291957
H      -1.377904   -1.476145   -0.903306
H      -2.255286   -1.139677    1.104772
H       1.696429   -1.521431   -0.661449
H       2.376514   -0.486374    1.723194
H      -0.036765    0.554574    2.304142
H       1.158257   -2.024395    2.108762
H      -0.523954   -3.272020    1.146707
