21

C      -0.139704    1.578907   -0.014472
C       0.081069    0.067838    0.038107
C       1.275706   -0.775657   -0.412275
C       2.745054   -0.343481   -0.238672
C       3.154176   -1.273984    0.961905
C       2.140579   -0.345612    1.721798
C       2.704165    0.787505    0.824670
C       0.833121   -0.792257    1.032731
O       0.212868   -1.929630    1.562659
H       0.495632    2.068434   -0.758169
H      -1.177046    1.787149   -0.294513
H       0.034502    2.066359    0.949163
H      -0.821798   -0.475641   -0.235760
H       1.072983   -1.621167   -1.060784
H       3.354168   -0.257506   -1.138978
H       2.900737   -2.334494    0.893965
H       4.191538   -1.141214    1.282208
H       2.122258   -0.268111    2.810136
H       3.712276    1.068034    1.139955
H       2.122922    1.686129    0.643542
H      -0.330900   -1.650347    2.307159
