18

C      -0.253125    1.403720    0.148146
C       0.198750   -0.049548   -0.048088
N       0.840084   -0.597610    1.136358
C       0.106934   -1.175450    2.001208
N      -1.250328   -1.453942    2.105257
N      -1.542751   -2.144747    3.248845
N      -0.460110   -2.311717    3.884360
N       0.555818   -1.744366    3.184137
C       1.924282   -1.779793    3.637563
H       0.595088    2.024784    0.449811
H      -0.671451    1.812591   -0.777762
H      -1.016449    1.481731    0.930233
H      -0.659985   -0.659085   -0.385215
H       0.926052   -0.085766   -0.867104
H      -1.986564   -1.228319    1.461876
H       1.945686   -2.311713    4.588512
H       2.551990   -2.294148    2.904113
H       2.307010   -0.763370    3.766551
