23

C      -0.409320    1.486726    0.376263
C      -0.146540   -0.004462    0.190046
C       0.317446   -0.389269   -1.224137
C       1.637744   -0.948416   -0.661658
C       1.207088   -0.582033    0.767039
C       2.146043    0.396072    1.465963
C       0.665412   -1.852925   -1.356871
C      -0.092205   -2.992430   -0.712945
O       1.160776   -2.181504   -2.638116
H       0.412800    2.100080   -0.004844
H      -1.313692    1.778302   -0.169376
H      -0.562149    1.740738    1.430273
H      -1.031313   -0.554720    0.533936
H       0.165096    0.210983   -2.115457
H       2.641558   -0.844035   -1.058382
H       1.061027   -1.448195    1.424057
H       2.385652    1.257858    0.835665
H       1.716511    0.768618    2.401599
H       3.090858   -0.102233    1.709551
H      -0.431357   -2.755279    0.297562
H      -0.979961   -3.245777   -1.306326
H       0.543000   -3.882518   -0.663234
H       0.403429   -2.280432   -3.225763
