20

C      -0.407713    1.454292    0.111116
C       0.009211    0.021104   -0.044296
N      -0.139396   -0.606860   -1.133679
C       0.210036   -2.015039   -1.235820
C       0.997444   -2.610831   -0.075440
C       0.834966   -4.101688    0.127609
C       2.335130   -1.972530    0.259376
C       1.126672   -1.721539    1.122614
O       0.539642   -0.441625    1.126623
H       0.452951    2.074238    0.381888
H      -0.841598    1.810577   -0.822045
H      -1.140069    1.548980    0.919414
H      -0.730200   -2.574690   -1.340736
H       0.749043   -2.164437   -2.181650
H       1.184716   -4.656408   -0.751252
H       1.412045   -4.453300    0.989135
H      -0.215071   -4.367637    0.294674
H       3.127832   -2.598516    0.655250
H       2.673156   -1.149535   -0.362497
H       1.084198   -2.141750    2.121426
