18

C      -0.476493    1.398945   -0.034097
C       0.216562    0.054313   -0.067221
O       1.544241    0.104573   -0.630725
C       2.051798   -0.804088    0.363037
C       0.785121   -0.602701    1.237778
C       1.038340    0.350667    2.422762
O       1.878934   -0.236799    3.391659
C       0.109977   -1.801499    1.711912
N      -0.423831   -2.740253    2.126683
H       0.104448    2.148646    0.507481
H      -0.612857    1.754374   -1.060057
H      -1.465515    1.309794    0.426636
H      -0.402556   -0.671141   -0.614237
H       2.170948   -1.822161   -0.026384
H       2.988512   -0.463605    0.812578
H       1.568642    1.231991    2.052887
H       0.081089    0.680759    2.850052
H       1.399953   -0.962507    3.808450
