16

O      -0.360898    1.193665    0.990303
C      -0.051389    0.119906    0.107754
C       0.941747   -0.889244    0.725467
C       0.042176   -1.866655    1.460734
O      -0.973106   -1.199285    2.239399
C      -1.327468   -1.746966    0.947853
C      -1.346351   -0.707306   -0.165950
O      -2.495284    0.096431   -0.223909
H      -0.590955    0.770987    1.832014
H       0.331474    0.584233   -0.802882
H       1.501560   -1.419154   -0.054341
H       1.664276   -0.388349    1.376513
H       0.432440   -2.779894    1.901133
H      -2.055727   -2.552049    0.978926
H      -1.257947   -1.241893   -1.122322
H      -2.274487    0.886451    0.292367
