18

O       0.154707   -0.180953   -0.359106
C       0.075980    1.009713   -0.214067
C       1.268667    1.947910   -0.064341
C       1.287561    2.963052   -1.170652
C       0.982572    4.262610   -1.107545
C       1.061377    4.902402   -2.474840
N       1.511959    3.834283   -3.398587
C       2.852282    3.314122   -3.115181
C       1.653177    2.608888   -2.577988
H      -0.908612    1.529968   -0.191153
H       1.165894    2.458186    0.901658
H       2.177721    1.338640   -0.049770
H       0.735294    4.810998   -0.205285
H       0.082946    5.274000   -2.808126
H       1.751635    5.754896   -2.512390
H       3.373361    2.924076   -3.985370
H       3.478378    3.840781   -2.397187
H       1.323148    1.665763   -3.007076
