18

C      -0.251726    1.531269   -0.042838
C      -0.017832    0.024975   -0.017846
O      -1.228451   -0.685799   -0.176835
C       1.181034   -0.434979   -0.905468
C       2.079087   -0.464485    0.371593
C       0.769110   -0.468802    1.219827
C       2.978206   -1.657028    0.522860
O       4.163448   -1.617812    0.732059
H       0.675727    2.085916    0.129578
H      -0.645077    1.845320   -1.018063
H      -0.973721    1.814940    0.729151
H      -1.726990   -0.283703   -0.896520
H       0.995588   -1.444212   -1.285202
H       1.503607    0.210493   -1.726123
H       2.667752    0.445836    0.498377
H       0.750821    0.147055    2.121453
H       0.459580   -1.487705    1.470716
H       2.444184   -2.633453    0.419546
