16

O      -0.177839    1.368692    0.099301
N       0.011200   -0.019743    0.086961
C      -1.093998   -0.637989   -0.007358
C      -2.512385   -0.063348   -0.102313
C      -3.326959   -1.264587   -0.564131
C      -2.615629   -2.379228   -0.423524
C      -2.136136   -3.573259   -1.209867
O      -0.781099   -3.027433   -1.097928
C      -1.204242   -2.149561    0.008921
H       0.726554    1.698903    0.139328
H      -2.823755    0.374091    0.856144
H      -2.555566    0.755033   -0.830377
H      -4.269061   -1.158519   -1.088910
H      -2.205160   -4.548073   -0.710271
H      -2.473712   -3.659858   -2.246951
H      -0.853822   -2.580444    0.955269
