17

C      -0.104789    1.458795    0.005943
C       0.059195   -0.030088    0.006575
C       0.927609   -0.907740   -0.885698
N       0.084817   -2.112081   -0.512442
C       0.408134   -2.249268    0.964413
C      -0.270400   -0.913595    1.215599
C      -1.014314   -1.102797   -0.093976
C      -2.376482   -1.096379   -0.461592
N      -3.495507   -1.070566   -0.761472
H       0.776613    1.947478    0.435574
H      -0.240099    1.838928   -1.011671
H      -0.975779    1.762920    0.594789
H       0.791320   -0.684206   -1.946789
H       1.994093   -1.016328   -0.660345
H      -0.148393   -3.091822    1.380529
H       1.475219   -2.359702    1.182688
H      -0.667556   -0.491332    2.130182
