27

C      -0.036830    1.601299    0.127192
C       0.019668    0.083810   -0.078150
C      -1.351167   -0.598449   -0.051905
C      -2.306122   -0.181907   -1.200401
C      -3.198231   -1.419335   -1.533113
C      -3.050146   -1.835754   -3.002595
C      -2.757634   -2.508763   -0.503621
C      -2.966036   -3.964826   -0.919178
C      -1.306926   -2.130233   -0.169656
H       0.965387    2.041302    0.117174
H      -0.621395    2.090767   -0.658658
H      -0.500168    1.852210    1.088246
H       0.508576   -0.138885   -1.036975
H       0.655792   -0.361437    0.698165
H      -1.833396   -0.354832    0.906365
H      -2.902499    0.697251   -0.940580
H      -1.716546    0.095287   -2.083662
H      -4.254270   -1.178880   -1.366286
H      -2.019967   -2.127669   -3.237814
H      -3.703280   -2.674830   -3.261256
H      -3.309151   -0.999678   -3.661132
H      -3.347178   -2.337268    0.408223
H      -2.368810   -4.226131   -1.798713
H      -2.673278   -4.642553   -0.109986
H      -4.015851   -4.170536   -1.156163
H      -0.639251   -2.425259   -0.992558
H      -0.934866   -2.619402    0.736985
