19

C       0.044747    1.584322   -0.106306
C      -0.039767    0.073990    0.046514
C      -1.460185   -0.526599   -0.031898
C      -1.379612   -1.862263    0.735461
C      -0.379980   -1.576224    1.875965
C       0.643036   -0.642945    1.247058
O       1.536977   -1.352589    0.312998
C       0.982391   -0.725910   -0.773245
O       1.287028   -0.847582   -1.917193
H       1.070943    1.946416    0.009891
H      -0.302726    1.885351   -1.099479
H      -0.582294    2.086007    0.638162
H      -2.154762    0.159018    0.469094
H      -1.800731   -0.641088   -1.064600
H      -2.352906   -2.199168    1.099449
H      -0.986297   -2.649989    0.084872
H      -0.876748   -1.042714    2.695891
H       0.081472   -2.474025    2.295524
H       1.237879   -0.047063    1.940786
