21

C      -0.327006    1.486108    0.127211
C       0.165012    0.053393   -0.114532
C       0.766790   -0.578893    1.126455
O       1.965052    0.046016    1.544016
C      -0.013840   -1.146112    2.284915
C      -1.269424   -1.891157    1.823423
C      -0.346393   -2.857259    0.994382
O      -0.544887   -2.993555   -0.398558
C       0.878108   -2.052132    1.398117
H       0.490296    2.146338    0.439353
H      -0.753014    1.914014   -0.785055
H      -1.099565    1.517109    0.903876
H      -0.645833   -0.569661   -0.495192
H       0.939128    0.053139   -0.890917
H       1.733353    0.904059    1.914231
H       0.188005   -0.817759    3.297223
H      -1.796787   -2.405892    2.630087
H      -1.993896   -1.310380    1.244726
H      -0.317038   -3.843982    1.475456
H      -1.307535   -3.563936   -0.539054
H       1.853190   -2.468464    1.618983
