19

C       1.479373    0.785109   -0.310276
C       0.130660    0.200689    0.045965
C       0.012570   -1.159499    0.655826
N      -0.326151    0.032487    1.425748
C       0.388668    0.508088    2.558816
C       0.439291   -0.274414    3.825329
C       1.761425    0.067861    3.143836
C       2.590951   -0.966943    2.606833
N       3.290197   -1.784917    2.177016
H       2.291558    0.343383    0.270069
H       1.690063    0.599425   -1.368665
H       1.492455    1.870428   -0.159367
H      -0.676402    0.522041   -0.611634
H      -0.830021   -1.803702    0.416276
H       0.939007   -1.683890    0.868165
H       0.247750    1.579462    2.676343
H       0.218929    0.206378    4.771411
H       0.133265   -1.312966    3.761589
H       2.335776    0.877728    3.583397
