13

O      -0.081367    1.355114    0.010592
C       0.015262    0.005272    0.002741
C       1.209413   -0.664667   -0.007512
C       1.275392   -2.105604   -0.015766
O       2.276983   -2.802780   -0.024849
N      -0.002137   -2.717698   -0.011849
C      -1.185854   -2.052957   -0.001670
C      -1.227996   -0.696033    0.005848
H       0.804488    1.736000    0.007749
H       2.157958   -0.138897   -0.009881
H       0.023648   -3.727296   -0.017388
H      -2.079195   -2.665820    0.000033
H      -2.162095   -0.153826    0.013977
