15

O      -0.036201   -0.041285    0.004135
C      -0.090622    1.173708    0.006813
C       1.143521    1.988802    0.000916
N       2.128129    2.593719   -0.003762
N      -1.227212    1.900185    0.015005
C      -1.339293    3.367240    0.019813
C      -2.831742    3.559355    0.031487
C      -3.479741    2.398915    0.032962
C      -2.533973    1.231030    0.022553
H      -0.850930    3.805436    0.900416
H      -0.864228    3.810212   -0.865677
H      -3.276437    4.545736    0.037584
H      -4.553531    2.265479    0.040507
H      -2.646355    0.585527   -0.858606
H      -2.633337    0.580197    0.901338
