15

C      -0.047144    1.402785    0.010255
O       0.009693   -0.004275    0.002362
C      -1.267057   -0.602228    0.010930
C      -1.089401   -2.085034    0.002223
C       0.072338   -2.817350   -0.008986
N      -0.361191   -4.100953   -0.013446
N      -1.703343   -4.172372   -0.003691
N      -2.145819   -2.946980    0.004898
H       0.981536    1.770398    0.002676
H      -0.572382    1.794560   -0.874773
H      -0.555910    1.785232    0.908885
H      -1.840261   -0.293763    0.901670
H      -1.856234   -0.285370   -0.866313
H       1.110562   -2.537906   -0.014512
H       0.177264   -4.952254   -0.021973
