18

C      -0.000629    1.539535    0.178321
C       0.008923    0.029784    0.001963
C       1.127446   -0.652348   -0.885899
C       1.177761   -1.822078    0.163701
O       2.367414   -2.282428    0.772665
C       2.328049   -1.879634    2.156565
C       1.255781   -0.801320    2.238927
C       0.558043   -0.848010    1.110344
H       0.977364    1.897517    0.515453
H      -0.241696    2.041744   -0.764533
H      -0.746640    1.846571    0.919154
H      -0.973619   -0.319958   -0.336720
H       0.861890   -0.905988   -1.915184
H       2.053078   -0.072720   -0.861076
H       0.555234   -2.668596   -0.159194
H       2.127798   -2.755733    2.794592
H       3.314658   -1.488391    2.438604
H       1.220807   -0.065338    3.032173
