14

N       0.310203    1.490136   -0.041415
C       0.052896    0.091600    0.012032
C      -0.146907   -0.648253    1.361264
C      -1.585873   -0.090754    1.496336
C      -1.386215   -0.612113    0.050721
O      -0.704294   -1.794810    0.601022
C      -2.352998   -0.776533   -1.001996
N      -3.114831   -0.843586   -1.869574
H       0.326662    1.832143   -0.994960
H      -0.347274    2.049664    0.488235
H       0.718200   -0.452445   -0.660205
H       0.580076   -0.871828    2.139507
H      -2.260309   -0.695505    2.102204
H      -1.733948    0.980379    1.649662
