17

O       0.157723    1.372353   -0.233843
C       0.039588   -0.006511   -0.069490
C       0.365669   -0.675293    1.304805
C      -0.869303   -1.609172    1.112328
C      -1.957317   -1.556564    2.183107
O      -2.641466   -0.301665    1.980421
C      -2.337384    0.241380    0.776964
O      -2.749318    1.319351    0.435540
C      -1.375754   -0.651452    0.009430
H      -0.685268    1.785533   -0.000789
H       0.618493   -0.487536   -0.865474
H       1.342289   -1.151168    1.406478
H       0.226054    0.028661    2.130978
H      -0.623332   -2.625017    0.804897
H      -2.687092   -2.367215    2.079250
H      -1.570107   -1.555810    3.205370
H      -1.836491   -1.010161   -0.912634
