19

C      -0.060756    1.594486   -0.045694
C      -0.006310    0.063552   -0.047104
C      -1.394634   -0.572471    0.102439
N       0.689616   -0.452304   -1.245082
C       0.264689    0.001624   -2.560965
C       1.671565   -1.372404   -1.053268
O       2.040091   -1.811468    0.020434
C       2.337655   -1.859777   -2.281139
N       2.910762   -2.294228   -3.186154
H       0.936122    2.026361   -0.173476
H      -0.713260    1.987023   -0.832069
H      -0.458893    1.940091    0.912406
H       0.611880   -0.265943    0.789484
H      -2.066195   -0.289862   -0.715194
H      -1.320961   -1.662804    0.130972
H      -1.855506   -0.237986    1.036627
H       0.487230    1.063619   -2.704784
H       0.780726   -0.564571   -3.335866
H      -0.811991   -0.148429   -2.689533
