22

C       0.048838    1.494800   -0.117040
C       0.026807   -0.024453    0.091053
C       0.678580   -0.458321    1.376739
C       0.324084   -0.115819    2.842175
C       1.542557   -1.046803    2.986174
C       1.104422   -1.918054    1.753772
N       2.387876   -1.790102    0.996104
C       3.493207   -2.621361    1.460765
C       2.217600   -0.474947    1.687195
H       1.075735    1.874324   -0.144811
H      -0.433816    1.769339   -1.059855
H      -0.476437    2.015982    0.690400
H      -1.011328   -0.382288    0.077625
H       0.543617   -0.526252   -0.735156
H       0.463294    0.924215    3.154060
H      -0.631983   -0.498040    3.215127
H       2.030648   -1.379758    3.901440
H       0.489932   -2.821406    1.743158
H       3.351107   -3.644752    1.097072
H       4.429675   -2.245372    1.034799
H       3.607982   -2.661191    2.557023
H       2.934950    0.344288    1.599840
