23

C      -0.019423    1.549703   -0.073535
C      -0.019893    0.028487    0.116804
C      -1.388047   -0.587558   -0.021585
C      -2.267780   -0.546115   -1.302770
C      -3.072165   -1.625277   -0.504924
C      -4.091868   -2.541981   -1.135925
C      -1.682542   -2.110269    0.026919
C      -3.508544   -0.767919    0.694222
O      -2.285376   -0.067409    0.988686
H       0.984714    1.961119    0.065356
H      -0.356167    1.822737   -1.079263
H      -0.690535    2.025890    0.645423
H       0.647871   -0.446115   -0.611906
H       0.368814   -0.222784    1.111529
H      -2.764882    0.397504   -1.543615
H      -1.769713   -0.960567   -2.182325
H      -3.662266   -3.094734   -1.977548
H      -4.467162   -3.274967   -0.412255
H      -4.952713   -1.977264   -1.512567
H      -1.125827   -2.683583   -0.717777
H      -1.640286   -2.595536    1.006232
H      -4.307064   -0.056298    0.446810
H      -3.823451   -1.365324    1.559583
