17

C       0.171418    1.535393    0.011106
C       0.028616    0.019047    0.049013
O       0.646771   -0.539777   -1.141897
C       1.291001   -1.723647   -0.746799
C       2.810509   -2.074557   -0.865501
O       3.601335   -1.174604   -0.092770
C       2.886881   -2.206797    0.614876
C       1.494160   -1.620410    0.737232
C       0.773155   -0.622367    1.225489
H       1.227392    1.817110    0.047537
H      -0.262313    1.926007   -0.913471
H      -0.350146    1.993053    0.857903
H      -1.041200   -0.248188    0.043048
H       0.729071   -2.621136   -1.057981
H       3.312498   -2.637345   -1.643997
H       3.457039   -2.880703    1.240081
H       0.771743   -0.188995    2.217606
