13

O      -0.014917   -0.063843    0.008397
C       0.018259    1.145611    0.037129
N      -1.073266    1.995335    0.070360
C      -0.708438    3.398535   -0.005275
C       0.811590    3.320646    0.009454
C       1.209123    2.051559    0.049770
C      -1.235789    4.085769   -1.186349
C      -1.682291    4.658945   -2.142853
H      -2.003937    1.663240   -0.120538
H      -1.052314    3.938273    0.891745
H       1.416707    4.216642   -0.007479
H       2.218778    1.667662    0.074354
H      -2.072777    5.159723   -2.994520
