15

N      -0.075054    1.264707    0.089405
C       0.040152   -0.089363    0.039542
O       1.053889   -0.730742    0.210830
N      -1.180442   -0.715739   -0.289104
C      -1.510114   -2.138825   -0.188958
C      -2.133899   -2.432697    1.131539
C      -2.969499   -1.757754    0.035727
C      -2.514672   -0.316436   -0.082193
O      -3.001864    0.781124   -0.022312
H       0.724169    1.783808    0.408410
H      -0.985400    1.700733    0.049254
H      -1.091847   -2.855286   -0.880062
H      -2.404613   -3.467658    1.319254
H      -1.830373   -1.873785    2.010969
H      -3.872062   -2.191470   -0.367587
