21

C      -0.134519    1.557921    0.018502
C       0.031238    0.039850    0.008196
C       0.916817   -0.531377   -1.095755
C       2.330478   -0.630103   -0.542012
C       2.288200   -0.125553    0.892918
C       0.830448   -0.564723    1.194355
O       0.280278   -0.224622    2.437769
C       0.874695   -2.066282    0.800061
C       1.443532   -1.865783   -0.598372
H       0.823982    2.078691   -0.063717
H      -0.754247    1.882397   -0.824128
H      -0.621481    1.882957    0.942681
H      -0.964162   -0.422208   -0.010052
H       0.727282   -0.346521   -2.145471
H       3.200797   -0.527589   -1.176916
H       3.009252   -0.632783    1.545864
H       2.433371    0.953189    0.992175
H       0.835720   -0.601308    3.127869
H       1.531808   -2.651122    1.455162
H      -0.122366   -2.517911    0.809920
H       1.651959   -2.686795   -1.271996
