21

C      -0.408024    1.401229   -0.240865
C      -0.208628   -0.069919    0.119358
O       0.210546   -0.815721   -1.031256
C       1.600016   -1.067372   -0.931526
C       1.878872   -1.318124    0.557381
C       3.280972   -0.861399    1.020841
C       3.028349    0.522610    1.568782
C       1.728755    0.792199    1.685650
C       0.854165   -0.353790    1.229602
H       0.533617    1.869197   -0.542810
H      -1.116378    1.483964   -1.069662
H      -0.809670    1.962736    0.609904
H      -1.176659   -0.492826    0.413224
H       1.831347   -1.923664   -1.571879
H       2.190183   -0.205467   -1.286179
H       1.676412   -2.363404    0.800510
H       3.687646   -1.521195    1.798580
H       4.014016   -0.868231    0.203414
H       3.832568    1.191346    1.856992
H       1.321339    1.711852    2.090883
H       0.353803   -0.810588    2.091737
