17

C      -0.124183    1.547015    0.003879
N       0.000827    0.097089   -0.150556
C      -1.238742   -0.635235    0.033606
C      -1.153527   -2.099943   -0.405863
C      -1.985572   -2.832138    0.617186
N      -2.473572   -3.983714    0.512785
O      -2.127812   -2.025896    1.740357
C      -1.626610   -0.756981    1.513830
O      -1.571676    0.055183    2.383199
H       0.843437    2.009894   -0.206490
H      -0.878728    1.997894   -0.664721
H      -0.401148    1.777994    1.033567
H       0.357356   -0.112349   -1.076747
H      -2.106921   -0.148985   -0.456023
H      -1.506705   -2.301521   -1.416994
H      -0.114026   -2.439427   -0.325794
H      -2.983322   -4.246812    1.357691
