17

O      -1.029568    1.186798    1.136690
C      -0.296526    1.055493    0.191423
C       1.011743    1.819455    0.003702
C       1.680120    2.306633    1.303527
C       2.721422    1.209747    1.006388
O       2.057625    0.843068   -0.232737
C       0.868270    2.832214   -1.111196
C       1.879884    2.969063   -2.164714
O       0.637179    2.304740   -2.416806
H      -0.500140    0.335634   -0.628090
H       2.059334    3.328726    1.264842
H       1.065786    2.169925    2.193236
H       3.744303    1.554720    0.823620
H       2.743236    0.370843    1.709952
H       0.250444    3.693520   -0.848365
H       2.003843    3.929208   -2.662787
H       2.749382    2.318166   -2.141474
