19

C      -0.162325    1.466844   -0.107523
N       0.105493    0.044504    0.038528
C       1.426764   -0.510989   -0.163754
C       2.559312    0.332686    0.392105
C       3.196513   -0.403763    1.543944
C       1.892013    0.319468    1.779878
C       1.750029    1.408752    2.809383
C       0.762575   -0.524470    1.201026
H       0.660293    2.122962    0.206031
H      -0.379508    1.672231   -1.160967
H      -1.052984    1.722550    0.475568
H       1.538783   -1.330987   -0.865798
H       3.051809    1.163245   -0.100833
H       3.234367   -1.490444    1.535782
H       4.075950    0.064881    1.979188
H       2.668444    2.000208    2.887509
H       0.928944    2.092787    2.574474
H       1.550553    0.984136    3.800644
H       0.271304   -1.351760    1.704509
