23

C      -1.067374    1.089077   -0.460806
O      -0.211562    0.012025   -0.122797
C       0.603415   -0.408332   -1.159645
C       0.043252   -1.237986   -2.290469
C       0.161808   -1.035096   -3.788301
C       1.103823   -1.831878   -1.385861
C       2.500409   -1.294220   -1.729015
C       2.018086    0.158005   -1.382780
C       2.282786    1.322256   -2.333285
H      -0.504225    1.996344   -0.720759
H      -1.723585    0.832968   -1.304565
H      -1.681870    1.297503    0.418432
H      -0.940159   -1.601536   -1.993168
H       1.182264   -0.814700   -4.107783
H      -0.152258   -1.942545   -4.316724
H      -0.477491   -0.214747   -4.133025
H       0.908637   -2.716206   -0.791427
H       3.282680   -1.652190   -1.056670
H       2.835409   -1.456302   -2.758529
H       2.409974    0.414001   -0.392296
H       1.884514    1.143198   -3.335117
H       1.830251    2.246625   -1.957301
H       3.359426    1.503535   -2.430728
