16

C       0.429453    1.443206    0.028126
C      -0.103260    0.015122   -0.008450
C       0.375906   -0.814928   -1.216481
C       1.641161   -1.493223   -0.674690
C       1.371678   -1.583706    0.812126
N       1.969708   -2.339751    1.627555
O       0.372302   -0.713761    1.147272
H       1.518332    1.463349   -0.085691
H      -0.011610    2.033154   -0.781804
H       0.177247    1.919522    0.979249
H      -1.194564    0.027421    0.068808
H      -0.376442   -1.565196   -1.476672
H       0.552447   -0.195347   -2.098267
H       1.844445   -2.477813   -1.095840
H       2.532709   -0.877536   -0.837069
H       1.611011   -2.197709    2.573584
