15

C      -0.055641    1.521906    0.097376
C       0.007836    0.039667   -0.000309
C       0.024362   -0.811579   -1.081640
N       0.091264   -2.145727   -0.662495
C       0.113215   -2.074180    0.634433
O       0.175056   -3.095826    1.503073
N       0.066125   -0.798033    1.105714
C      -0.018327   -0.440123   -2.445105
C      -0.055414   -0.108996   -3.603022
H       0.820902    1.940758    0.607329
H      -0.092473    1.943102   -0.909366
H      -0.946539    1.862988    0.639405
H       0.200278   -3.901162    0.970572
H       0.072771   -0.525290    2.074100
H      -0.088019    0.173808   -4.625483
