17

C       0.236858    1.722453    0.050574
C       0.069154    0.208748    0.024010
C       0.641886   -0.610221   -1.184227
O       1.621339    0.113733   -1.894139
C       1.288335   -1.585924   -0.183859
C       1.381227   -3.052064   -0.203085
O       2.524653   -2.227510   -0.441129
C       0.968892   -0.629771    0.962646
O       1.316987   -0.535889    2.102041
H       1.253517    1.999528   -0.233600
H      -0.455160    2.206930   -0.644102
H       0.037737    2.100651    1.057250
H      -0.976894   -0.072474    0.201939
H      -0.109180   -1.035985   -1.860785
H       2.357742   -0.488865   -2.056385
H       1.392933   -3.596999    0.738892
H       1.001797   -3.592921   -1.068534
