21

C      -0.461014    1.040172    0.059225
O       0.506977    0.036274   -0.168742
C       0.956199   -0.565473    0.996180
C       0.143314   -1.640493    1.723161
C      -0.975526   -2.261489    0.965324
C      -0.549554   -2.858194   -0.150249
C       0.952497   -2.777851   -0.296254
C       1.419948   -1.985290    0.935348
C       2.715405   -2.387894    1.599104
H      -0.065590    1.845679    0.696710
H      -0.728101    1.458196   -0.914218
H      -1.361009    0.627575    0.535660
H       1.521211    0.104431    1.649790
H       0.126577   -1.610972    2.808459
H      -2.008754   -2.190105    1.286079
H      -1.182693   -3.327008   -0.894984
H       1.415240   -3.774068   -0.318884
H       1.240349   -2.273578   -1.226961
H       3.563327   -2.275353    0.912810
H       2.921978   -1.774347    2.481996
H       2.684860   -3.435095    1.921270
