18

C       0.259659    1.551983    0.243305
C      -0.042380    0.083137   -0.055230
C       0.280145   -0.829922    1.148899
C      -1.497915   -0.119500   -0.461790
O      -2.354135    0.719085   -0.303792
C      -1.868498   -1.489780   -1.051805
C      -2.787226   -2.229591   -0.091881
O      -2.549394   -3.316480    0.364707
H       1.311424    1.675755    0.517820
H       0.051547    2.184934   -0.623364
H      -0.359461    1.913145    1.068744
H       0.571006   -0.256961   -0.901881
H      -0.292446   -0.519394    2.029157
H       0.051364   -1.881216    0.951624
H       1.342964   -0.757399    1.396457
H      -2.436697   -1.290026   -1.968060
H      -1.003127   -2.114008   -1.278587
H      -3.706470   -1.666581    0.173494
