21

C      -0.003535    1.502405   -0.013815
C      -0.051722   -0.030793   -0.046050
C      -1.431012   -0.479069    0.588056
C      -0.629561   -0.629846    1.960545
C       0.626236   -0.829140    1.061497
C       2.010287   -0.367329    0.476205
C       1.170632   -0.617699   -0.874521
O       1.019785   -2.021608   -0.899235
C       0.640112   -2.267286    0.468583
H       0.957304    1.922698   -0.318108
H      -0.752858    1.880627   -0.719213
H      -0.253534    1.915320    0.969934
H      -2.217860    0.279304    0.569714
H      -1.846966   -1.419694    0.229912
H      -0.636692    0.304117    2.525246
H      -0.906075   -1.448230    2.630779
H       2.278529    0.666981    0.672546
H       2.877526   -1.021739    0.604215
H       1.486892   -0.249603   -1.852455
H       1.395293   -2.887939    0.967245
H      -0.315006   -2.797327    0.499660
