16

N       0.021125    1.461549    0.168344
C      -0.004082    0.056684    0.039780
C      -1.160495   -0.661193    0.014286
N      -1.102491   -2.043609   -0.017030
C       0.039866   -2.805200   -0.055038
O       0.020996   -4.036708   -0.067559
C       1.280586   -2.017661   -0.060877
N       2.414524   -2.788783   -0.159291
C       1.236713   -0.651980    0.005401
H       0.727894    1.890562   -0.416467
H      -0.874066    1.889697   -0.030522
H      -2.149054   -0.223093    0.029657
H      -1.958937   -2.578226   -0.006048
H       2.232021   -3.765295    0.034753
H       3.270936   -2.418370    0.219495
H       2.160742   -0.080194    0.037408
