20

C      -0.203021    1.474671   -0.049740
C       0.017407   -0.038664   -0.062211
O       0.700772   -0.455596   -1.243066
C       0.730585   -0.539473    1.188287
C      -0.026648   -0.524110    2.548185
C       0.639839   -1.889128    2.870355
O      -0.063833   -2.870450    3.587116
C       0.922591   -2.071819    1.356780
H       0.756069    2.004790    0.011066
H      -0.710744    1.792533   -0.964348
H      -0.807077    1.782391    0.809899
H      -0.957292   -0.540637   -0.127192
H       1.561920   -0.022833   -1.248994
H       1.693141   -0.019454    1.285094
H       0.133584    0.308834    3.236355
H      -1.105888   -0.650314    2.394003
H       1.571885   -1.738968    3.423907
H      -0.879663   -3.057275    3.110633
H       0.105221   -2.617360    0.869495
H       1.869142   -2.523673    1.054180
