24

C       0.033439    1.456885   -0.303507
C       0.198473   -0.050522   -0.096585
C       0.525145   -0.415032    1.352979
N       0.629735   -1.863208    1.500176
C       1.950575   -2.473295    1.371861
C       1.244539   -2.450034    2.692286
C       1.781953   -1.597943    3.826030
C       0.543171   -3.719263    3.152680
O       1.397529   -4.579242    3.894435
H       0.947362    1.999935   -0.037282
H      -0.198164    1.690352   -1.347006
H      -0.778789    1.856820    0.313894
H      -0.714983   -0.579132   -0.390868
H       0.997137   -0.430796   -0.746120
H       1.440577    0.117150    1.662667
H      -0.282101   -0.067196    2.010229
H       2.003046   -3.380200    0.771704
H       2.807549   -1.809188    1.258878
H       2.437276   -0.795321    3.482600
H       0.960850   -1.149383    4.397971
H       2.348231   -2.235585    4.510358
H      -0.279769   -3.466074    3.831261
H       0.108301   -4.221947    2.277760
H       2.119833   -4.837780    3.312183
