13

N       0.007127    1.429496    0.168743
C       0.002828    0.056789    0.048695
C      -1.047849   -0.816603    0.013274
O      -0.593711   -2.118340   -0.035832
C       0.736499   -2.093972   -0.031612
C       1.167299   -0.796204    0.015079
N       2.535260   -0.395309   -0.003794
O       3.392107   -1.271596   -0.001679
O       2.773261    0.816202   -0.029548
H       0.890177    1.849069   -0.085652
H      -0.801867    1.905290   -0.199424
H      -2.116095   -0.692851    0.022841
H       1.265257   -3.030215   -0.070845
