19

O       0.029427    0.022739    0.269544
C       0.034277    1.183464   -0.040359
C       1.303278    2.035760   -0.127350
C       1.254553    2.900260   -1.299751
C       1.169974    3.617152   -2.261231
C       1.434963    2.850415    1.179517
C       1.700123    2.084061    2.505435
C       2.684146    3.215874    2.908803
C       2.745449    3.649796    1.418471
H      -0.904350    1.740943   -0.254035
H       2.149668    1.341875   -0.193898
H       1.115127    4.245343   -3.115827
H       0.565544    3.509164    1.278185
H       0.846108    1.887787    3.157139
H       2.216774    1.137288    2.321481
H       2.200258    3.972119    3.533015
H       3.621348    2.921792    3.385717
H       3.590381    3.189637    0.896802
H       2.734327    4.716744    1.188053
