15

C       0.012938    1.347778   -0.185868
C       0.452170   -0.081894   -0.002822
O       0.864158   -0.553641    1.024082
C       0.328567   -0.951387   -1.277874
O      -0.115458   -0.538878   -2.320831
O       0.770649   -2.198514   -1.074859
C       0.709828   -3.055758   -2.219820
C      -0.722122   -3.443802   -2.571756
O      -1.001601   -4.044755   -3.571327
H      -1.028059    1.380593   -0.522905
H       0.127561    1.887906    0.753762
H       0.603344    1.823867   -0.975524
H       1.179018   -2.587450   -3.088916
H       1.268225   -3.953135   -1.941154
H      -1.480311   -3.153907   -1.811072
