11

C      -0.029420    1.389664    0.010429
C       1.183901    2.069990    0.002245
C       2.360450    1.325676   -0.013658
N       2.393610   -0.009967   -0.021552
C       1.220058   -0.648568   -0.013526
C      -0.012534   -0.001275    0.002376
H      -0.968998    1.932393    0.022833
H       1.221807    3.153678    0.008014
H       3.325935    1.826112   -0.020384
H       1.268945   -1.734943   -0.020176
H      -0.932331   -0.575546    0.008256
