18

C       0.076451    1.562298   -0.144238
C       0.091420    0.055036    0.032877
N       1.089470   -0.671487   -0.792812
C       1.323952   -1.640590    0.294598
C       2.712033   -2.073002    0.464685
N       3.802980   -2.422777    0.618442
C       0.726330   -0.600303    1.303717
C       1.750168    0.230003    2.065087
H       1.071084    1.989352    0.002493
H      -0.254766    1.820881   -1.155859
H      -0.617772    2.030616    0.562010
H      -0.928830   -0.337582   -0.102806
H       0.758639   -1.067985   -1.666300
H       0.694730   -2.541189    0.246273
H       0.001774   -1.036949    1.993699
H       2.513439    0.640600    1.398757
H       1.263203    1.061923    2.583458
H       2.259665   -0.381538    2.815898
