17

O      -0.152282    1.360049   -0.041103
C       0.008992   -0.008163   -0.057313
C       0.886637   -0.802131   -1.025049
C      -0.072401   -2.019735   -0.773588
O       0.414988   -2.898554    0.230870
C       0.529941   -2.125909    1.435254
C      -0.300367   -0.873912    1.186229
C      -1.078799   -1.050297   -0.094134
O      -2.431614   -0.923277   -0.295302
H       0.583415    1.750339    0.443908
H       0.795539   -0.413926   -2.043311
H       1.941312   -0.965119   -0.780023
H      -0.385245   -2.602838   -1.638031
H       0.142129   -2.720439    2.271224
H       1.587262   -1.905922    1.640245
H      -0.773154   -0.337365    2.000641
H      -2.885714   -1.582942    0.241070
