14

N       0.073126    1.306205   -0.152598
C      -0.032685   -0.026095   -0.007834
C      -1.151806   -0.805952    0.102991
C      -0.818710   -2.219231    0.098835
O      -1.524341   -3.198018    0.206381
C       0.707539   -2.246137   -0.160130
O       1.381082   -3.128070   -0.623136
C       1.239154   -0.836460    0.113402
O       2.249730   -0.431605   -0.775807
H       0.971297    1.677426   -0.420996
H      -0.736157    1.855548   -0.393239
H      -2.170544   -0.440769    0.132417
H       1.599746   -0.783433    1.155051
H       2.613681   -1.244866   -1.155554
