13

N      -0.017517    1.351663    0.145039
C       0.049038   -0.026819    0.037725
N      -1.058033   -0.760225    0.030854
N      -0.602038   -2.046306   -0.004867
C       0.729555   -2.143573   -0.034366
C       1.225156   -0.842719   -0.004067
C       2.621695   -0.453378    0.006185
O       3.559654   -1.224037   -0.040354
H       0.692552    1.853478   -0.367513
H      -0.943156    1.711045   -0.045632
H      -1.276693   -2.792262   -0.012525
H       1.252024   -3.086063   -0.068152
H       2.798144    0.645139    0.066564
