17

C       0.421803    1.482569   -0.038983
C       0.116770    0.007602    0.083748
O       0.899345   -0.830613   -0.823173
C       1.335111   -1.682541    0.252906
C       2.627117   -1.137941    0.884261
O       3.802022   -1.252695    0.770006
O       1.940833   -0.308964    1.754703
C       0.630628   -0.796843    1.301007
C      -0.261065   -1.196243    2.439396
H       1.465264    1.691138    0.205130
H       0.225439    1.815523   -1.062379
H      -0.220156    2.059588    0.635116
H      -0.950624   -0.189978   -0.085098
H       1.213152   -2.749761    0.066272
H      -0.524215   -0.321073    3.042867
H      -1.185640   -1.643406    2.063442
H       0.238825   -1.918215    3.090847
