15

N       0.288397    1.326211    0.358251
C       0.221420    0.078626    0.128550
N      -0.973058   -0.559292   -0.141729
C      -1.049327   -2.003168   -0.167723
C      -1.463946   -2.587331    1.124138
N      -1.799601   -3.011713    2.144732
C      -2.213252    0.195797   -0.047999
C      -3.055409   -0.005258   -1.233038
N      -3.715085   -0.196008   -2.161968
H       1.250360    1.624888    0.490212
H       1.070344   -0.613558    0.095595
H      -1.758569   -2.325024   -0.939322
H      -0.072057   -2.410923   -0.442807
H      -2.785928   -0.082440    0.847377
H      -1.934638    1.249178    0.046120
