18

C      -0.167222    1.541071   -0.059384
C       0.035853    0.037550    0.036370
O       0.692228   -0.452677   -1.164212
C       1.790379   -1.224369   -0.709763
C       1.260679   -1.900609    0.556946
C       0.944995   -0.514570    1.161621
C       2.339046    0.125088    1.036963
O       2.820904   -0.373101   -0.230441
H       0.777724    2.068379   -0.209331
H      -0.813472    1.771149   -0.911163
H      -0.649632    1.924700    0.846165
H      -0.949939   -0.446226    0.108860
H       2.178404   -1.817961   -1.535563
H       0.379384   -2.520105    0.379677
H       2.023545   -2.462494    1.099464
H       0.507068   -0.481453    2.159156
H       2.328289    1.218694    1.020713
H       3.010143   -0.201407    1.842224
