20

C       0.062980    1.453203   -0.341797
C       0.007746   -0.055978   -0.070494
O       0.671292   -0.363815    1.158759
C      -1.444191   -0.541145    0.033746
O      -1.995483    0.080038    1.192100
C       0.749338   -0.865497   -1.143795
N       2.169398   -0.575886   -1.129989
C       2.874381   -0.239144   -2.239818
O       2.423537   -0.166937   -3.364667
H       1.100135    1.794321   -0.354650
H      -0.393702    1.698053   -1.306256
H      -0.476353    1.994321    0.439570
H       0.065541   -0.093454    1.860385
H      -2.007286   -0.270405   -0.871210
H      -1.452486   -1.635150    0.137222
H      -2.822484   -0.356175    1.413478
H       0.583710   -1.934292   -0.955677
H       0.383150   -0.630789   -2.145484
H       2.626708   -0.582217   -0.231572
H       3.937202   -0.034481   -2.001514
