15

C      -0.038407    1.541162   -0.050349
C       0.015863    0.021794   -0.027300
C       1.345045   -0.666279   -0.240499
C       0.730810   -0.687398    1.144443
C       1.308733    0.089569    2.202903
N       1.771282    0.720537    3.055623
C      -1.162442   -0.645116   -0.516599
C      -2.154253   -1.185053   -0.929600
H       0.875110    1.972332    0.366060
H      -0.154398    1.895012   -1.078611
H      -0.886653    1.906282    0.534901
H       1.359382   -1.603870   -0.782036
H       2.209341   -0.029534   -0.389345
H       0.286894   -1.621744    1.467745
H      -3.029796   -1.662769   -1.294501
