18

C      -0.075330    1.435311    0.104423
N      -0.022630   -0.018342    0.130818
C      -1.089182   -0.675543    0.043536
O      -2.378291   -0.174969   -0.081184
C      -3.157817   -1.373555   -0.134313
C      -2.606608   -2.409831    0.883515
C      -3.002012   -3.544874   -0.087898
C      -2.434785   -2.437868   -1.005016
C      -1.295153   -2.158931    0.046819
H       0.537725    1.798727   -0.728215
H      -1.084925    1.849890    0.006437
H       0.378469    1.824773    1.022887
H      -4.216709   -1.143773   -0.234066
H      -2.695376   -2.377578    1.969611
H      -2.415524   -4.463466   -0.020901
H      -4.069141   -3.766955   -0.181691
H      -2.326044   -2.437845   -2.089773
H      -0.429565   -2.809853    0.135236
