17

C       0.053137    1.544059    0.010168
C       0.157432    0.042666   -0.005685
O      -0.762930   -0.669838    0.847680
C       0.629609   -0.748770    1.148788
C       1.271753   -2.102518    0.907938
C       1.800425   -2.182248   -0.518599
O       0.823712   -1.793760   -1.500567
C       0.211984   -0.592026   -1.385827
O      -0.318632   -0.092050   -2.339136
H       0.962163    2.000544   -0.394650
H      -0.786763    1.863982   -0.610435
H      -0.096347    1.898466    1.032648
H       0.918712   -0.205570    2.048107
H       2.100469   -2.268319    1.603847
H       0.525044   -2.882553    1.086571
H       2.684898   -1.542752   -0.635220
H       2.083004   -3.200863   -0.791530
