21

C      -0.111570    1.587570   -0.014588
C      -0.014126    0.081324    0.003406
C       1.052179   -0.734757   -0.900167
C       0.680673   -1.822347    0.137825
C       1.037401   -2.875506    1.212358
C       0.289329   -1.900262    2.226835
C       0.617174   -0.754873    1.198319
O      -0.719618   -2.068591   -0.187148
C      -1.259787   -0.744055   -0.299445
H       0.848549    2.051231    0.232516
H      -0.414958    1.954307   -1.002077
H      -0.851230    1.939771    0.713501
H       0.797322   -0.896283   -1.951697
H       2.063671   -0.340185   -0.793741
H       0.638924   -3.882612    1.073385
H       2.107855   -2.921553    1.424742
H      -0.766160   -2.152086    2.315673
H       0.727969   -1.788139    3.220466
H       1.612358   -0.359423    1.416272
H      -2.065910   -0.592817    0.430740
H      -1.660296   -0.572213   -1.307054
