21

C       0.145193    0.718677   -1.008493
C       0.096561    0.053313    0.354312
O       1.018715    0.113228    1.134688
C      -1.167624   -0.741654    0.688254
C      -1.023357   -2.168702    0.210800
C      -1.437611   -2.638178   -1.159473
C      -2.075678   -3.272210    0.048358
C      -1.122997   -4.302563    0.663710
C      -0.040967   -3.183508    0.819739
H       1.135789    1.138778   -1.186758
H      -0.107816    0.000675   -1.795859
H      -0.603905    1.518300   -1.055462
H      -1.291585   -0.720024    1.776020
H      -2.047782   -0.282173    0.224059
H      -2.077685   -1.956986   -1.712745
H      -0.752685   -3.209510   -1.783625
H      -3.145889   -3.219441    0.212669
H      -1.464676   -4.683477    1.628524
H      -0.865787   -5.154409    0.025342
H       0.901509   -3.321679    0.280639
H       0.190450   -2.967647    1.864931
