15

O       0.241003    1.347171    0.169515
C       0.128458    0.008162   -0.022900
C       0.089788   -0.789913   -1.137354
C      -0.039856   -2.134576   -0.664934
C      -0.072665   -2.104876    0.701112
N       0.041384   -0.777526    1.098878
C      -0.010193   -0.281574    2.453753
C      -1.380986   -0.140387    2.975727
N      -2.451304   -0.033945    3.395892
H       0.282375    1.777990   -0.689236
H       0.154469   -0.458460   -2.161900
H      -0.094561   -3.021392   -1.276962
H      -0.166726   -2.886622    1.436575
H       0.545909   -0.957096    3.111590
H       0.479630    0.694704    2.490330
