17

C       0.447323    1.339932    0.095042
C      -0.071263   -0.088249   -0.022762
O      -1.472338   -0.116839   -0.225263
C       0.783991   -0.990426   -0.973475
C       1.485455   -1.588883    0.266202
O       2.737546   -0.945267    0.449540
C       0.342737   -1.015105    1.150431
H       1.521458    1.342111    0.294581
H       0.277459    1.890994   -0.839454
H      -0.068992    1.866692    0.904403
H      -1.687631    0.518802   -0.916466
H       0.148422   -1.722799   -1.476062
H       1.440969   -0.502377   -1.697393
H       1.604663   -2.679421    0.280638
H       3.049068   -1.155255    1.336077
H       0.632670   -0.541037    2.092828
H      -0.439393   -1.754768    1.338732
