16

C      -0.026101    1.512375   -0.000001
C      -0.014577    0.005725    0.021375
N      -0.196890   -0.619926   -1.148367
C      -0.204902   -1.950052   -1.171823
C      -0.034120   -2.768221   -0.048329
N      -0.108176   -4.158226   -0.088695
C       0.162818   -2.088271    1.153665
F       0.353056   -2.815066    2.265706
C       0.174546   -0.709253    1.207764
H       0.216500    1.932257    0.979470
H       0.694867    1.890074   -0.731429
H      -1.011099    1.886122   -0.299896
H      -0.356599   -2.418673   -2.143530
H       0.152507   -4.566581   -0.974673
H       0.350709   -4.615284    0.686128
H       0.332231   -0.212146    2.157567
