21

C      -0.204586    1.599935   -0.174123
C       0.078805    0.098434    0.029455
C       0.768782   -0.531123   -1.145508
C       2.046535   -0.957531   -1.247736
C       2.338764   -1.571565   -2.600838
C       1.125951   -1.134010   -3.454801
C       0.014957   -0.805604   -2.430632
C       3.067982   -0.903228   -0.204694
O       4.197099   -1.328774   -0.344585
H       0.728124    2.157873   -0.299156
H      -0.823289    1.777409   -1.058715
H      -0.733529    2.009211    0.691460
H       0.662846   -0.035722    0.943874
H      -0.875248   -0.421638    0.190926
H       3.297940   -1.239208   -3.007158
H       2.408495   -2.663726   -2.512133
H       1.379991   -0.228363   -4.014891
H       0.820309   -1.888830   -4.183091
H      -0.663908   -1.657371   -2.271521
H      -0.621622    0.031106   -2.739091
H       2.760597   -0.434741    0.754974
