14

N       0.069815   -1.162088   -0.124822
C       0.054069   -0.009451   -0.023305
C       0.016974    1.420413    0.089821
N       0.358955    2.251517   -1.110013
C       1.258593    2.268742    0.050121
C       1.035961    3.442546    0.997161
C      -0.383263    3.234413    1.486117
C      -0.932264    2.113717    1.016436
H       0.758046    1.644868   -1.825939
H       2.238349    1.813517   -0.040387
H       1.756264    3.431301    1.824441
H       1.154883    4.400133    0.477289
H      -0.885943    3.951493    2.124383
H      -1.928162    1.742551    1.217711
