21

O       0.125129    1.355457   -0.408869
C      -0.022083    0.048870    0.140757
C      -1.434600   -0.454527    0.111424
C      -2.533203   -0.061595    1.108865
C      -3.235856   -1.428012    0.818810
C      -4.304815   -1.273572   -0.271802
C      -3.514840   -0.708298   -1.485838
C      -2.056896   -1.027079   -1.155184
C      -1.950088   -1.888030    0.073252
H      -0.436519    1.948578    0.100183
H       0.620168   -0.598447   -0.466788
H       0.365370    0.013699    1.172926
H      -2.136417   -0.018854    2.128194
H      -3.116053    0.848572    0.918198
H      -3.554301   -1.993036    1.694849
H      -4.733308   -2.252016   -0.517136
H      -5.127441   -0.621881    0.040585
H      -3.816534   -1.186945   -2.422361
H      -3.676567    0.367325   -1.614550
H      -1.353474   -1.189181   -1.964955
H      -1.420704   -2.828532    0.155753
