18

C       0.672636    1.646153   -0.046303
C       0.007592    0.284774    0.095939
C       0.173696   -0.566318   -1.160609
O      -0.601106   -1.773867   -1.108254
C      -0.038687   -2.857964   -0.529503
N      -0.104300   -3.983013   -1.093140
O       0.579474   -2.642664    0.669135
C       0.083195   -1.605492    1.522445
O       0.597206   -0.352052    1.228338
H       1.739417    1.534149   -0.262546
H       0.209626    2.220887   -0.853268
H       0.571332    2.208654    0.884590
H      -1.072411    0.405242    0.278407
H      -0.207560   -0.023375   -2.029214
H       1.231713   -0.799420   -1.324220
H       0.269325   -4.696052   -0.468555
H      -1.015510   -1.609630    1.493017
H       0.446617   -1.871231    2.515709
