22

C      -0.260510    1.449702    0.242817
N      -0.022678    0.014428    0.242382
C       1.272467   -0.463530   -0.232193
C       0.899139   -0.600855    1.208075
C       1.634340    0.227041    2.247615
C       0.398175   -1.952589    1.707319
C      -0.738301   -1.820605    2.693208
C      -0.965987   -2.790471    3.770166
O      -0.397341   -1.510640    4.052121
H       0.637671    2.067695    0.394019
H      -0.697420    1.729501   -0.721546
H      -0.983741    1.700644    1.025565
H       1.254171   -1.321147   -0.901772
H       2.028180    0.282922   -0.477580
H       1.997592    1.173851    1.843176
H       0.996509    0.435204    3.111276
H       2.503608   -0.328790    2.614942
H       0.041169   -2.534128    0.849877
H       1.219017   -2.510939    2.173460
H      -1.598586   -1.264195    2.319000
H      -1.972125   -2.951384    4.155193
H      -0.288416   -3.636716    3.881329
