15

C      -0.017650   -1.140452    0.015998
C      -0.032244    0.062064    0.013988
C      -0.067340    1.492304   -0.001031
N      -1.005598    2.233371    0.923196
C      -0.852123    3.355117   -0.057242
C       0.648900    3.706984   -0.031748
C       1.231712    2.342253   -0.000149
N       0.986706    3.008430   -1.321308
C      -0.424068    2.418677   -1.224636
H       0.001434   -2.202338    0.020600
H      -1.934024    1.824595    0.798858
H      -1.608895    4.135087   -0.085610
H       1.151667    4.608733    0.291610
H       2.219315    2.072516    0.348609
H      -0.984785    2.136103   -2.113514
