17

O       0.170311    0.220091   -0.924125
C      -0.008622    1.196249   -0.272542
C      -1.183326    2.064338    0.180738
C      -0.090208    2.894711    0.878761
C      -0.089393    2.951421    2.392001
C       1.238063    3.499734    2.954871
C       1.245513    3.562922    4.410462
C       1.223637    3.605619    5.611234
O       0.935001    1.965639    0.363810
H      -1.722199    2.549809   -0.634193
H      -1.890908    1.555782    0.838485
H       0.078808    3.881693    0.437205
H      -0.921093    3.585893    2.719674
H      -0.270519    1.948968    2.795136
H       2.059814    2.864794    2.603415
H       1.425093    4.500272    2.542724
H       1.220083    3.646971    6.672198
