19

O      -0.205528    0.005383   -0.534296
C      -0.086928    1.177002   -0.250291
N      -1.096003    2.031599    0.099118
C      -0.672982    3.362878    0.496381
C       0.754389    3.449029   -0.094226
C       1.227156    1.982328   -0.181526
C       2.043534    1.525529    1.012874
C       2.899592    0.323062    0.915997
N       3.509507    1.664762    1.020378
H      -2.028645    1.678222    0.243879
H      -1.335988    4.131437    0.086864
H      -0.667975    3.477631    1.589446
H       0.705659    3.885186   -1.095761
H       1.413073    4.074231    0.512202
H       1.800054    1.783064   -1.092650
H       1.592773    1.753617    1.978289
H       3.046211   -0.314867    1.782229
H       2.925903   -0.195912   -0.037848
H       3.830493    1.964158    0.101813
