22

C      -0.087715    1.546539   -0.091690
C       0.006342    0.010449    0.037825
C       0.895460   -0.368494    1.244032
C      -1.401900   -0.653466    0.138684
C      -2.238886   -0.234420    1.329737
C      -3.189995    0.936988    1.247912
C      -3.729684   -0.469081    1.298371
C       0.642999   -0.518205   -1.181642
N       1.134642   -0.936710   -2.140762
H       0.906921    1.984924   -0.209764
H      -0.690290    1.833493   -0.957785
H      -0.549013    1.966397    0.804830
H       0.483588    0.055673    2.163500
H       0.961263   -1.453906    1.360079
H       1.908226    0.022259    1.115208
H      -1.953793   -0.433619   -0.782987
H      -1.258261   -1.740824    0.158083
H      -1.771874   -0.393857    2.297299
H      -3.309907    1.568218    2.121609
H      -3.259188    1.469377    0.305192
H      -4.156488   -0.880211    0.389334
H      -4.215983   -0.804288    2.207444
