23

C       0.444843    1.440031   -0.479951
C       0.007350    0.051892    0.007314
O      -1.364451    0.087825    0.400191
C       0.298753   -1.037407   -1.049171
C       1.781175   -1.422918   -0.844210
C       2.124586   -1.011811    0.619078
C       0.815150   -0.464377    1.221202
C       0.994524    0.527363    2.366692
O       1.640111   -0.054515    3.493490
H       1.510057    1.469435   -0.729364
H      -0.108324    1.709982   -1.387905
H       0.245452    2.203939    0.275975
H      -1.872569    0.467535   -0.324272
H      -0.358084   -1.885838   -0.830427
H       0.078581   -0.706144   -2.069811
H       1.942311   -2.489623   -1.020616
H       2.424445   -0.893109   -1.553118
H       2.520105   -1.841760    1.207997
H       2.897037   -0.234798    0.633050
H       0.221211   -1.305619    1.608813
H       1.645392    1.353888    2.061262
H       0.018269    0.954992    2.640020
H       1.066057   -0.751279    3.827755
