18

N       0.063501    1.357123    0.285963
C       0.126716    0.045604   -0.063983
O       1.158676   -0.497741   -0.416782
C      -1.202820   -0.717982   -0.016999
C      -2.207230   -0.252781    1.031658
O      -2.669973    1.058268    0.694577
C      -1.863292   -0.951489   -1.407094
O      -1.898654   -2.374587   -1.199166
C      -1.055006   -2.256888   -0.032778
H       0.897379    1.910176    0.172078
H      -0.828146    1.796962    0.461262
H      -3.050208   -0.957243    1.040313
H      -1.742819   -0.261139    2.028880
H      -3.313768    1.333808    1.353926
H      -2.859795   -0.517331   -1.539143
H      -1.223250   -0.675951   -2.254107
H      -0.026767   -2.573279   -0.228264
H      -1.464453   -2.797841    0.828953
