23

C      -0.053824    1.512295   -0.001033
C       0.026787   -0.021359    0.016372
C      -1.402677   -0.573399   -0.087364
C       0.989017   -0.598069   -1.085824
C       2.024032   -1.304697   -0.193120
O       3.034606   -1.928404   -0.920404
C       1.125251   -2.035305    0.848451
C       0.794542   -0.569337    1.258812
C       2.281371   -0.248360    0.922412
H       0.928071    1.987725    0.060423
H      -0.530315    1.861921   -0.923692
H      -0.655175    1.878497    0.839405
H      -1.882096   -0.228559   -1.010307
H      -1.434587   -1.665604   -0.090596
H      -2.015089   -0.224073    0.752271
H       0.493285   -1.303916   -1.758957
H       1.453888    0.181035   -1.697356
H       3.639596   -2.346530   -0.299277
H       0.328493   -2.687837    0.486314
H       1.713308   -2.552919    1.612243
H       0.374164   -0.337909    2.237960
H       2.965603   -0.617370    1.692324
H       2.562400    0.764958    0.629223
