14

N      -0.046289    1.438950   -0.133869
C      -0.049733    0.044717   -0.049302
C      -1.204884   -0.727658    0.023629
C      -1.127609   -2.121418    0.041000
C       0.134349   -2.682122   -0.016579
F       0.270833   -4.008300   -0.002282
N       1.256027   -1.987749   -0.082197
C       1.162826   -0.670038   -0.097601
O       2.308397    0.053573   -0.157771
H       0.835926    1.851821    0.134371
H      -0.823500    1.886826    0.330404
H      -2.173059   -0.238169    0.064015
H      -2.008828   -2.746281    0.097915
H       3.034355   -0.584173   -0.170592
