12

O       0.233018    1.266494   -0.140570
C       0.114026   -0.055323   -0.075769
N       0.217509   -0.835520   -1.141494
N       0.024817   -2.032073   -0.576824
C       0.057504   -3.273550   -1.324269
C       1.412409   -3.645481   -1.746570
N       2.468146   -3.961887   -2.088487
N      -0.179403   -1.999929    0.729961
N      -0.129767   -0.737146    1.070970
H       0.125863    1.612392    0.754991
H      -0.352937   -4.044185   -0.667885
H      -0.585019   -3.173557   -2.203290
