25

C       0.334925    1.486368   -0.350108
C      -0.056651    0.092655    0.070959
O       0.983485   -0.885311    0.176951
C       0.264838   -0.529965    1.369006
C       1.022242    0.148283    2.486375
C       1.895484   -0.778920    3.374372
C       2.994977   -1.455186    2.534440
C       2.553613    0.094341    4.458813
C       1.033521   -1.855706    4.059954
H       1.227441    1.836772    0.170962
H       0.541669    1.508658   -1.425345
H      -0.483749    2.187497   -0.153738
H      -0.950535   -0.284565   -0.432216
H      -0.422841   -1.311525    1.698586
H       1.663401    0.930141    2.067440
H       0.286046    0.653315    3.128133
H       3.632712   -0.710132    2.046787
H       3.633827   -2.077583    3.170980
H       2.574261   -2.088951    1.749997
H       1.801673    0.579964    5.091138
H       3.196707   -0.508870    5.108751
H       3.173874    0.879920    4.012916
H       0.591276   -2.548183    3.337150
H       1.641866   -2.450837    4.749425
H       0.219399   -1.405776    4.640006
