23

C       0.025705    1.368945   -0.313673
C      -0.022075   -0.109462    0.053152
O       1.000361   -0.696962    0.324563
C      -1.402779   -0.808170    0.090076
C      -2.106306   -0.350792    1.382923
C      -2.220078   -0.496559   -1.187482
C      -1.627331   -1.447441   -2.236227
C      -1.407365   -2.763625   -1.457595
C      -1.227672   -2.349361    0.030485
H       0.021230    1.469043   -1.405408
H      -0.831075    1.930735    0.065540
H       0.955696    1.797327    0.062613
H      -2.252485    0.733595    1.418299
H      -3.092810   -0.820284    1.453311
H      -1.530423   -0.641015    2.267649
H      -3.270860   -0.752829   -1.000497
H      -2.196933    0.555635   -1.482976
H      -2.267215   -1.570433   -3.114435
H      -0.667478   -1.053397   -2.592969
H      -2.281419   -3.413667   -1.566752
H      -0.549526   -3.324097   -1.837865
H      -0.249101   -2.625162    0.425401
H      -1.984171   -2.829678    0.658157
