17

C      -0.078296    1.528807   -0.046858
C       0.121814    0.031348    0.023662
O       1.228817   -0.455182   -0.800135
C       1.755385   -1.208801    0.289716
C       2.179735   -0.287139    1.402168
C       0.719000   -0.638266    1.274387
N       0.044095   -1.278499    2.333751
C       2.238346   -2.529980    0.069271
N       2.622487   -3.609035   -0.097990
H       0.811872    2.069278    0.285115
H      -0.301771    1.834076   -1.073634
H      -0.923618    1.823171    0.584469
H      -0.793390   -0.497133   -0.279650
H       2.662679   -0.774329    2.242357
H       2.564576    0.691271    1.131919
H      -0.142574   -0.650655    3.107807
H      -0.825820   -1.707456    2.038777
