21

C      -0.016731    1.556183    0.116155
C      -0.022177    0.027824    0.058794
C       0.756730   -0.498722   -1.154459
C       0.620850   -1.995353   -1.338245
O       0.399317   -2.531716   -2.394044
O       0.593119   -0.552103    1.206858
C      -0.212532   -0.613738    2.374507
C       0.669714   -1.181041    3.475897
O       1.790381   -0.354033    3.715623
H       1.010674    1.931691    0.155319
H      -0.505436    1.973913   -0.769336
H      -0.550925    1.924202    0.996182
H      -1.064277   -0.327172   -0.000452
H       0.442282   -0.002284   -2.076076
H       1.819905   -0.273561   -0.988741
H       0.744991   -2.585523   -0.404912
H      -0.563543    0.386700    2.664335
H      -1.091963   -1.255665    2.205840
H       0.102000   -1.238419    4.410249
H       0.973060   -2.203833    3.200470
H       2.187092   -0.195386    2.851186
