21

C      -0.069850    1.601400    0.018087
C      -0.039380    0.071660   -0.005591
N       0.640596   -0.472814   -1.186737
C       2.032227   -0.576983   -1.150367
N       2.701370   -0.215075   -0.136742
C       4.139140   -0.383664   -0.199141
C      -0.015085   -0.863138   -2.356544
C      -1.528650   -0.743074   -2.372072
O       0.594199   -1.288909   -3.318030
H       0.948094    1.996708    0.020830
H      -0.599795    2.008371   -0.849021
H      -0.577761    1.951508    0.922231
H       0.508549   -0.294650    0.864833
H      -1.048628   -0.339198    0.037233
H       2.444322   -0.994478   -2.071077
H       4.495648   -0.818836   -1.145866
H       4.630236    0.586243   -0.057213
H       4.469948   -1.028192    0.623701
H      -1.870067    0.261185   -2.106651
H      -1.861340   -0.985806   -3.380584
H      -1.987569   -1.447124   -1.670037
