20

C       0.141095    1.381036    0.201189
O      -0.090675    0.016293   -0.066248
C       0.640877   -0.508621   -1.166772
C       2.132678   -0.678451   -0.877321
C      -0.022803   -1.845173   -1.483277
C      -1.472735   -1.809841   -2.002462
O      -1.040128   -2.419859   -3.264210
C       0.271194   -2.449276   -2.843823
N       1.310976   -2.831450   -3.432972
H       1.161982    1.574656    0.558755
H      -0.037084    2.004922   -0.688834
H      -0.561560    1.677133    0.984070
H       0.514151    0.162393   -2.034815
H       2.613468   -1.195137   -1.712650
H       2.627693    0.286340   -0.737373
H       2.273058   -1.274214    0.030507
H       0.135296   -2.540610   -0.654836
H      -2.195385   -2.446747   -1.489005
H      -1.890072   -0.814795   -2.171305
H       1.103894   -3.169641   -4.374365
