21

C      -0.102830    1.491741    0.026189
C       0.032559   -0.034669   -0.019205
C      -1.308368   -0.597519   -0.510574
C       1.305235   -0.686958   -0.622872
C       2.157726   -0.111521    0.607859
C       0.840966   -0.742871    1.152789
O       0.179062   -1.432217    2.218149
C      -0.008367   -2.552613    1.259523
C       1.099859   -1.963253    0.308333
H       0.713692    2.008929    0.530375
H      -0.182876    1.901263   -0.987774
H      -1.025475    1.758893    0.552930
H      -1.687145    0.033939   -1.322011
H      -1.237905   -1.612670   -0.901880
H      -2.059506   -0.577760    0.287104
H       1.625506   -0.654687   -1.666998
H       3.067664   -0.665002    0.843225
H       2.330632    0.963667    0.635634
H       0.310284   -3.494274    1.713468
H      -1.047598   -2.620400    0.941971
H       2.042192   -2.473368    0.513430
