17

C       0.075139    1.538986    0.044727
C       0.119984    0.034855   -0.092457
O       1.134369   -0.554624   -0.385034
C      -1.191043   -0.749109    0.116482
C      -2.101255   -0.218982    1.252232
C      -2.033529   -0.682122   -1.173211
O      -1.795941    0.023609   -2.114496
C      -0.907812   -2.240739    0.357292
O      -1.779750   -3.014327    0.663497
H       1.057551    1.949131   -0.190709
H      -0.673027    1.945781   -0.643135
H      -0.212421    1.833508    1.059322
H      -2.469220    0.786913    1.037333
H      -2.952957   -0.891807    1.372282
H      -1.555207   -0.195863    2.199666
H      -2.919181   -1.351156   -1.136719
H       0.140713   -2.548105    0.202940
