17

C       0.650041   -0.481959   -0.286070
C      -0.204624    0.737713   -0.023326
O       0.221342    1.869407   -0.055906
C      -1.682761    0.522868    0.220502
O      -2.171832   -0.811125    0.381338
C      -2.234200    0.055621    1.508370
C      -1.381916   -0.267721    2.724933
C      -2.001445   -1.276889    3.576939
C      -2.532912   -2.102801    4.268421
H       1.704463   -0.204351   -0.269392
H       0.441107   -1.290625    0.417410
H       0.394684   -0.874494   -1.278655
H      -2.309917    1.187227   -0.374844
H      -3.244396    0.383881    1.755845
H      -0.386120   -0.598586    2.414334
H      -1.237527    0.660229    3.294256
H      -2.993368   -2.837424    4.881568
