22

C      -0.189149    1.636256    0.050739
C      -0.054181    0.129519   -0.043675
C       0.846604   -0.532786   -1.084571
C       2.098180   -0.219277   -0.206160
N       0.999330   -0.511917    0.860900
C       1.054165   -1.727844   -0.105921
C       2.595360   -1.680777   -0.169390
C       3.254503   -2.220608   -1.434416
C       3.338730   -2.108920    1.093268
H       0.766609    2.146081   -0.103876
H      -0.893537    2.007040   -0.701907
H      -0.569449    1.923012    1.036774
H      -1.030727   -0.352496    0.098481
H       0.768590   -0.552526   -2.176833
H       2.682205    0.702540   -0.166501
H       0.383681   -2.577350    0.050644
H       2.726604   -1.916360   -2.342856
H       4.288654   -1.866470   -1.513490
H       3.286710   -3.315971   -1.416909
H       3.372393   -3.201828    1.171705
H       4.375023   -1.751854    1.072448
H       2.853312   -1.712263    1.987046
