14

C       0.132443    1.593271   -0.083432
C       0.044791    0.115020    0.015418
N      -0.427784   -0.730136   -0.844306
C      -0.248617   -1.980103   -0.260334
C       0.329545   -1.802643    0.948629
O       0.753369   -2.619570    1.935646
C      -0.198230   -3.393963    2.567249
O       0.099561   -4.195877    3.387805
O       0.525187   -0.471691    1.153415
H       1.172735    1.930373   -0.030520
H      -0.296045    1.905498   -1.035956
H      -0.413957    2.077512    0.732348
H      -0.527989   -2.897801   -0.751072
H      -1.213033   -3.165059    2.199538
