17

C      -0.020494    1.517480    0.060039
C      -0.007594    0.022206    0.013957
C      -0.027067   -0.782582   -1.072616
C      -0.003668   -2.259154   -0.703140
C       0.033307   -2.196514    0.797526
C       0.029922   -0.866031    1.172578
N       0.062990   -0.833196    2.522737
N       0.088321   -2.082373    3.057651
C       0.070215   -2.910480    2.006387
H       0.871881    1.909064    0.563769
H      -0.053612    1.942978   -0.945862
H      -0.889483    1.892329    0.614757
H      -0.056177   -0.435928   -2.098736
H      -0.886488   -2.781045   -1.095847
H       0.868295   -2.764148   -1.139749
H       0.071174   -0.044524    3.145802
H       0.084823   -3.976071    2.183728
