20

C      -0.332497    1.643786    0.099796
N      -0.182402    0.199182    0.125835
C      -0.951683   -0.574636    1.132248
C      -2.177863   -1.268435    0.552091
O      -3.047041   -0.344896   -0.081938
C       0.310478   -1.428118    1.410938
C       1.099401   -0.338993    0.621099
C       2.030973   -0.852157   -0.454471
O       3.231831   -0.858678   -0.375399
H       0.311946    2.073300   -0.674460
H      -1.369525    1.899963   -0.132758
H      -0.074842    2.118875    1.063608
H      -1.241666    0.043515    1.995524
H      -1.852771   -2.050771   -0.151206
H      -2.755257   -1.751793    1.347960
H      -2.575110   -0.023071   -0.857974
H       0.608463   -1.568722    2.448699
H       0.290663   -2.397786    0.905898
H       1.651262    0.340971    1.285497
H       1.492044   -1.260629   -1.340951
