20

C      -0.013040    1.421482    0.061862
N       0.076753   -0.027700    0.006908
C      -0.156324   -0.734748    1.254303
C       0.025424   -0.644586   -1.202355
C      -0.034912   -0.049171   -2.428592
C      -0.011299   -1.035783   -3.495024
O      -0.057962   -0.847355   -4.694651
C       0.083805   -2.425866   -2.833621
C       0.067642   -2.159816   -1.318604
H       0.674988    1.867126   -0.661398
H      -1.027195    1.785299   -0.157240
H       0.268579    1.761917    1.060898
H      -1.205748   -0.670491    1.579437
H       0.105885   -1.787257    1.154620
H       0.467757   -0.304118    2.043906
H      -0.104539    1.009661   -2.630496
H      -0.749177   -3.050519   -3.167247
H       1.002926   -2.919451   -3.162504
H       0.951682   -2.564045   -0.811898
H      -0.803920   -2.610844   -0.830360
