19

C      -0.124946    1.389826   -0.049401
C       1.287569    0.871858    0.036390
C       1.947208    0.678537    1.396816
C       1.186930    1.005354    2.656188
C       1.199238   -0.412834    2.133862
C       0.063545   -0.860379    1.237604
C      -0.497168   -2.214960    1.316993
O      -1.225517   -1.099439    1.828671
C       0.130577   -0.099641   -0.070126
H      -0.598806    1.837414    0.815407
H      -0.427769    1.837067   -0.990383
H       1.947782    1.045926   -0.805127
H       3.029322    0.728960    1.425419
H       1.773570    1.191919    3.549620
H       0.271615    1.582318    2.610550
H       1.709884   -1.169677    2.718706
H      -0.914597   -2.680702    0.423887
H      -0.119412   -2.913745    2.063853
H      -0.084947   -0.643665   -0.982924
