19

C       0.374709    1.334868    0.163712
C      -0.333542    0.041027   -0.244664
N       0.276431   -0.600447   -1.397749
C       0.998683   -1.756602   -1.307937
O       1.147789   -2.367023   -0.259468
C       1.592774   -2.231173   -2.597669
C       2.931298   -2.940921   -2.514198
C       1.694898   -3.731713   -2.794133
H       1.416817    1.136439    0.430042
H       0.364476    2.070269   -0.648614
H      -0.122563    1.786175    1.028272
H      -0.289271   -0.692081    0.563247
H      -1.390887    0.239936   -0.459645
H       0.230943   -0.130440   -2.287080
H       1.404889   -1.626459   -3.479390
H       3.638313   -2.768673   -3.317605
H       3.356598   -3.021597   -1.520969
H       1.300593   -4.337121   -1.986695
H       1.531963   -4.115673   -3.794615
