16

C      -0.020891    1.555161   -0.204692
C       1.474275    1.830989   -0.029206
C       2.097638    0.818313    0.589360
C       1.036958   -0.171631    0.901204
C       0.517727   -1.626459    1.168011
O       0.509293   -1.529744    2.609825
C       0.080235   -0.202983    2.201126
C      -0.753293   -0.703218    0.982730
N      -0.046455    0.087691   -0.068783
H      -0.587803    2.095945    0.575165
H      -0.412750    1.875333   -1.175500
H       1.933860    2.763998   -0.334303
H       3.134165    0.774277    0.891873
H       0.772270   -2.570661    0.689116
H      -0.128668    0.529095    2.981537
H      -1.799746   -1.004613    0.933985
