15

C      -0.118189    1.459037    0.116434
C      -0.042542   -0.050278   -0.057488
O       0.657467   -0.409853   -1.258934
C      -0.121719   -0.699323   -2.341140
N       0.669509   -0.932102   -3.422856
O      -1.329711   -0.720870   -2.335138
C       0.678626   -0.759116    1.078052
O       0.710395   -0.358448    2.211083
H       0.878939    1.903261    0.053412
H      -0.755045    1.897007   -0.655175
H      -0.534856    1.687707    1.099981
H      -1.053757   -0.475095   -0.120183
H       1.659052   -1.056310   -3.298163
H       0.228211   -1.321005   -4.237317
H       1.167451   -1.710095    0.770044
