13

O       0.003907   -0.010220   -0.001078
C       0.033742    1.175066    0.015423
O      -1.106748    1.941436    0.163444
C      -0.800120    3.333051    0.089551
C      -1.382167    4.043968    1.234713
N      -1.819304    4.630796    2.127867
C       0.729951    3.389323    0.033685
C       1.473542    2.748365    1.136365
N       1.190227    2.006744   -0.126640
H      -1.230366    3.740419   -0.832215
H       1.184904    4.143478   -0.597367
H       2.521909    2.979886    1.285068
H       0.927191    2.453880    2.028236
