18

C      -0.098307    1.591650    0.087642
C       0.020930    0.086746   -0.038875
C       0.721160   -0.589494   -1.248695
C       2.137209   -0.037152   -1.571080
C       2.749027   -0.789821   -0.333594
C       1.391198   -1.546583   -0.215483
N       0.978230   -0.629927    0.913388
C       2.289323   -0.018437    0.898859
O       2.741533    0.839325    1.598471
H       0.860731    2.098708   -0.042761
H      -0.794830    1.969387   -0.668349
H      -0.485141    1.862103    1.074611
H      -0.962049   -0.374341    0.108623
H       0.102878   -0.895546   -2.092799
H       2.509213   -0.500874   -2.487638
H       2.291668    1.043215   -1.635198
H       3.753202   -1.202512   -0.417261
H       1.244924   -2.617730   -0.101944
