18

C       0.134192    1.554656    0.023045
C       0.043377    0.053205   -0.014326
C       0.630568   -0.910698   -1.166198
C      -0.069078   -1.808936   -0.104394
C       0.608218   -0.955703    1.007748
N      -0.948759   -2.929111    0.235351
C      -1.919461   -2.007384    0.740251
O      -2.867329   -2.177133    1.444793
C      -1.257111   -0.853513   -0.113806
H       1.179821    1.881814    0.011879
H      -0.371712    2.003450   -0.837844
H      -0.333560    1.944754    0.932561
H       0.158030   -0.837551   -2.147516
H       1.721318   -0.954625   -1.237949
H       1.695982   -1.020321    1.090012
H       0.123642   -0.971921    1.988095
H      -0.674948   -3.762307    0.746243
H      -1.789077   -0.773627   -1.066350
