17

C       0.006609    1.488109   -0.229809
C       1.552877    1.504291    0.116642
C       1.344541    0.182724    0.908737
O       1.098423    0.307234    2.285499
C       0.064140   -0.683047    2.512027
C      -0.172432   -1.214676    1.108332
C       1.266640   -1.289880    0.418324
O       0.725231   -0.853366   -0.859398
C       0.030885   -0.009511    0.133518
H      -0.575481    2.076160    0.482856
H      -0.298720    1.736079   -1.248200
H       2.179694    1.378480   -0.764541
H       1.913180    2.338709    0.718351
H       0.427238   -1.455881    3.199800
H      -0.811692   -0.197958    2.957363
H      -0.911835   -1.997400    0.939194
H       1.963317   -2.134325    0.419199
