21

C       0.082035    1.368895   -0.040792
O       0.098182   -0.049471   -0.019522
C       0.711337   -0.595551    1.092721
C       0.501183   -2.105392    1.086681
C       1.316876   -2.770986    2.207439
C       2.778639   -2.291473    2.178707
O       3.469117   -2.778204    1.035815
C       2.802912   -0.761680    2.187216
O       2.106119   -0.279597    1.043417
H       1.094822    1.781702   -0.092306
H      -0.478517    1.664118   -0.929972
H      -0.421628    1.772438    0.850430
H       0.303440   -0.148100    2.023560
H      -0.565840   -2.324281    1.188438
H       0.818020   -2.479611    0.107378
H       0.882553   -2.523915    3.185475
H       1.287933   -3.859456    2.105796
H       3.316981   -2.676324    3.052297
H       3.236728   -2.189002    0.307499
H       2.355537   -0.365446    3.113351
H       3.827589   -0.389646    2.104826
