15

O      -0.775451    1.143978    0.720375
C       0.148558    0.878203   -0.008110
C       1.382171    1.723045   -0.142568
C       1.668520    2.773206    0.951895
O       1.799407    3.841325   -0.019605
C       1.516626    2.959962   -1.106201
C       2.772242    2.272264   -1.685810
N       2.517371    1.083674   -0.824151
H       0.149513   -0.018698   -0.664972
H       0.815833    2.941344    1.617348
H       2.583993    2.617776    1.535229
H       0.742385    3.335878   -1.777539
H       2.738688    2.026955   -2.753066
H       3.683717    2.840738   -1.472639
H       3.283167    0.793981   -0.224691
