22

C      -0.222457    1.641392    0.331694
O      -0.030510    0.248934    0.450289
C      -1.079708   -0.559615   -0.043729
C      -2.379924   -0.385315    0.738565
C      -1.282176   -0.543309   -1.601810
C      -1.197029   -2.072359   -1.561464
C      -2.176103   -3.021404   -2.135037
N      -0.777404   -2.983505   -2.617237
C      -0.619484   -2.040198   -0.145847
H       0.717442    2.115820    0.624713
H      -0.456452    1.938509   -0.701757
H      -1.019738    2.017838    0.987822
H      -2.803702    0.615787    0.612045
H      -3.128032   -1.105413    0.393748
H      -2.203217   -0.556019    1.805337
H      -2.196306   -0.091167   -1.996894
H      -0.410819   -0.101034   -2.095745
H      -2.444597   -3.925896   -1.594771
H      -2.961651   -2.626306   -2.775439
H      -0.731080   -2.490394   -3.506426
H       0.471630   -2.099278   -0.149607
H      -1.023338   -2.739957    0.589931
