20

C      -0.462075    1.327316   -0.179603
N       0.016387   -0.037515   -0.024244
C       1.395637   -0.422053   -0.304449
C       2.470087    0.642912   -0.392167
C       2.449058    1.367872    0.962668
O       3.042087    2.381187    1.223136
C       1.547490    0.586625    1.929945
C       0.839828   -0.475137    1.100074
C       0.408520   -1.750758    1.782880
H      -0.730297    1.485436   -1.229032
H      -1.371074    1.448917    0.417984
H       0.236090    2.126461    0.109881
H       1.509244   -1.319513   -0.908011
H       3.458065    0.185757   -0.529103
H       2.342996    1.364472   -1.205683
H       2.181359    0.118959    2.693950
H       0.879338    1.274155    2.458959
H      -0.347926   -1.550238    2.550641
H      -0.027348   -2.440286    1.055952
H       1.256652   -2.243329    2.271913
