23

C      -0.014278    1.540179   -0.023920
C       0.006457    0.004755    0.004158
C      -1.432210   -0.543508    0.046811
C       0.695240   -0.524763   -1.272395
O       0.875341   -1.926008   -1.231521
C       1.869386   -2.310258   -0.293866
C       1.674656   -1.707049    1.095810
C       2.245132   -0.341404    1.403015
C       0.758512   -0.509057    1.231631
H       0.999051    1.954098   -0.044755
H      -0.550283    1.911716   -0.905154
H      -0.518249    1.939460    0.862858
H      -2.019007   -0.168908   -0.799424
H      -1.427471   -1.635483   -0.001035
H      -1.942423   -0.238551    0.966798
H       0.066813   -0.317988   -2.145029
H       1.661826   -0.016676   -1.433963
H       1.815357   -3.401143   -0.241002
H       2.864626   -2.045798   -0.689868
H       1.667933   -2.426609    1.908100
H       2.626258   -0.149283    2.400123
H       2.809041    0.148849    0.614562
H       0.175781   -0.458944    2.148220
