16

O      -0.360182    0.354407   -0.593084
C       0.076279    1.088764    0.255592
C       1.333011    1.890947    0.056703
C       2.651686    1.196761   -0.393207
C       3.024245    2.591938   -0.973882
C       1.498072    2.805984   -1.191783
N       3.468365    3.457201    0.128145
C       2.707906    3.414035    1.139687
O       1.579684    2.659176    1.248404
H      -0.417226    1.224576    1.241593
H       3.290460    0.780886    0.387680
H       2.434571    0.457525   -1.165148
H       3.710112    2.665723   -1.815999
H       1.117631    2.294587   -2.076791
H       1.109439    3.823273   -1.122098
H       2.888588    3.991295    2.041950
