21

O       0.089200    1.270360   -0.269657
C      -0.042471   -0.142966   -0.128389
C       0.843858   -0.869105   -1.179086
C       2.194584   -1.057632   -0.442126
O       2.037550   -0.459012    0.850894
C       0.656651   -0.577037    1.169756
C      -1.510423   -0.493206   -0.196669
C      -2.549635    0.407509    0.422949
C      -2.455527    0.283795   -1.077384
H       0.990306    1.486847   -0.001612
H       0.409548   -1.831868   -1.461530
H       0.925793   -0.256545   -2.078407
H       2.440221   -2.123494   -0.330603
H       3.038519   -0.564502   -0.931428
H       0.436533    0.082518    2.011688
H       0.393917   -1.613505    1.439090
H      -1.691894   -1.561913   -0.122145
H      -3.388162   -0.054837    0.931801
H      -2.199844    1.334438    0.860700
H      -2.046937    1.129888   -1.616213
H      -3.229102   -0.264695   -1.603300
