19

C       0.178203    1.414054    0.078764
N       0.216533   -0.037634    0.059367
C       0.474760   -0.632354   -1.013619
O       0.759546   -0.028077   -2.221401
C       0.739756   -0.996576   -3.282840
C       1.862997   -0.710792   -4.266397
C       0.791352   -2.327070   -2.546377
C       1.859020   -2.523895   -1.542888
N       0.509682   -2.056581   -1.125448
H       1.087463    1.799849    0.556601
H       0.091836    1.873879   -0.912884
H      -0.665886    1.736778    0.696695
H      -0.228158   -0.916872   -3.797146
H       2.839322   -0.785570   -3.780546
H       1.828582   -1.429115   -5.091504
H       1.758063    0.294206   -4.683549
H       0.282787   -3.177463   -2.988393
H       2.103566   -3.524259   -1.202384
H       2.673019   -1.806163   -1.496205
