17

C       0.027704    1.532932   -0.101632
C       0.039509    0.079673   -0.018582
C       0.044772   -1.122894    0.037099
C       0.031192   -2.572436    0.124491
C       0.602354   -3.162694    1.442090
C      -0.433428   -4.164719    1.879687
C      -1.526690   -4.173231    1.109804
C      -1.404426   -3.184553    0.016727
O      -2.225079   -2.903749   -0.819134
H       0.839425    1.903190   -0.737639
H      -0.915879    1.895982   -0.523633
H       0.146252    1.990632    0.886775
H       0.583238   -2.992921   -0.727326
H       1.584062   -3.628538    1.302006
H       0.734354   -2.384090    2.201677
H      -0.280057   -4.794325    2.750145
H      -2.410399   -4.785717    1.233654
