15

C      -0.033136    1.520052   -0.013213
C       0.019266   -0.009019    0.029017
C       0.750641   -0.533128    1.257065
O       0.754004   -1.943623    1.218544
C       1.410862   -2.520288    2.319153
H       0.972687    1.954135   -0.034138
H      -0.563619    1.870784   -0.903105
H      -0.550389    1.926697    0.862946
H      -0.994702   -0.425125    0.024838
H       0.519619   -0.397806   -0.865291
H       1.785812   -0.147426    1.280922
H       0.257597   -0.175608    2.179014
H       2.469480   -2.217552    2.371134
H       0.932555   -2.245817    3.273568
H       1.361241   -3.605658    2.200635
