15

O      -0.082459    1.291021    0.090038
C       0.050798   -0.075174    0.054557
C      -0.146703   -0.953469   -1.187834
C      -1.051334   -1.095856    0.029319
C      -0.017206   -2.122041    0.570715
O      -0.350277   -3.169050    1.385928
C       0.789062   -2.121867   -0.793289
O       1.962514   -1.553124   -0.164483
C       1.059861   -0.988160    0.810888
H       0.640909    1.679546   -0.416101
H      -0.387301   -0.544395   -2.159516
H      -2.122686   -1.010576    0.129111
H       0.458019   -3.636869    1.629381
H       0.996471   -2.949921   -1.470405
H       1.519203   -0.675338    1.747987
