15

O       0.009716    0.151582    0.697615
C      -0.012947    1.166683    0.072163
O      -1.188300    1.750556   -0.254818
C      -1.275743    2.906268   -1.093449
C      -0.063103    3.818858   -0.898518
C       1.168628    2.940217   -1.126952
O       1.136341    1.782805   -0.286726
C      -0.091244    4.953441   -1.808124
C      -0.114463    5.871385   -2.582720
H      -1.343730    2.591581   -2.141681
H      -2.207626    3.403878   -0.819741
H      -0.053768    4.171612    0.140818
H       1.216573    2.627182   -2.176784
H       2.093474    3.463624   -0.878678
H      -0.135060    6.693136   -3.255817
