21

C       0.046514    1.488878    0.076407
C       0.002287    0.000184   -0.065164
C       0.707042   -0.929381   -1.090467
C       0.086372   -1.795449    0.025961
O       0.595924   -0.831488    1.026817
C      -1.214649   -0.965243   -0.054985
C      -2.278813   -1.027286    1.057799
C      -3.287283   -1.572190    0.004725
C      -2.313807   -1.140248   -1.129856
H       1.080286    1.836964    0.162240
H      -0.407287    1.966494   -0.798006
H      -0.501000    1.807554    0.969004
H       0.290443   -0.998873   -2.098620
H       1.797052   -0.879250   -1.081057
H       0.222405   -2.856518    0.239660
H      -2.054629   -1.656153    1.921344
H      -2.555639   -0.032422    1.421734
H      -3.396601   -2.658370    0.060879
H      -4.283953   -1.126098   -0.005485
H      -2.602946   -0.187119   -1.584886
H      -2.127296   -1.859409   -1.931824
