17

O      -0.174683    0.382037   -0.743022
C       0.175911    1.103213    0.161716
C       1.404138    1.928933    0.151176
C       1.839865    2.715498    1.384164
O       2.462261    3.904743    0.886962
C       2.790381    3.649122   -0.467084
C       3.731116    2.404098   -0.626095
C       2.475604    1.567902   -0.886775
C       1.642882    2.804973   -1.073407
H      -0.438515    1.199231    1.085432
H       0.984406    3.000937    2.008145
H       2.544646    2.152069    2.010240
H       3.089795    4.584549   -0.936696
H       4.345741    2.478757   -1.526878
H       4.367170    2.160596    0.230133
H       2.394396    0.625086   -1.412692
H       0.872360    3.056459   -1.788925
