15

C      -0.082200    1.522032   -0.065162
C      -0.009489    0.021278    0.042054
N       1.289918   -0.604156   -0.176062
C       0.691140   -0.672918    1.194429
C       1.363462    0.094414    2.215048
C       1.898381    0.732935    3.080789
C       0.147703   -1.937682    1.626079
C      -0.296584   -3.002077    1.965801
H       0.807426    1.984384    0.366167
H      -0.151300    1.818875   -1.116958
H      -0.965470    1.903683    0.456629
H      -0.885700   -0.515911   -0.316931
H       1.184828   -1.516825   -0.613812
H       2.381889    1.292006    3.843277
H      -0.689304   -3.938285    2.277327
