17

C      -0.076762   -1.250564   -0.127207
C      -0.036838   -0.050531   -0.054090
C      -0.004479    1.396156    0.018248
C       0.027500    2.081422    1.414745
C       1.537597    1.688083    1.574377
C       2.212185    2.852994    2.283687
O       1.555036    3.970246    1.654752
C       0.675679    3.333694    0.754431
C       1.372499    2.118329    0.074971
H      -0.111611   -2.309817   -0.191400
H      -0.719081    1.834992   -0.687051
H      -0.746495    2.052881    2.181919
H       1.815638    0.666499    1.825362
H       2.029510    2.870797    3.365004
H       3.293237    2.905474    2.106186
H       0.094105    4.062131    0.190656
H       2.142880    2.132165   -0.696236
