16

O      -0.067630    1.314949   -0.005689
N       0.034284   -0.083604    0.040660
C      -1.118728   -0.638875    0.016317
C      -2.462112   -0.040591   -0.018505
C      -3.390252   -1.008200    0.045267
C      -2.768933   -2.372642    0.086830
O      -3.305823   -3.349351    0.922047
C      -1.991804   -2.761795   -1.151867
C      -1.279559   -2.124486    0.039389
H       0.855585    1.585908    0.028288
H      -2.633068    1.021828   -0.109599
H      -4.464586   -0.861958    0.043972
H      -3.991279   -3.818360    0.434279
H      -1.800380   -3.822153   -1.283372
H      -2.123537   -2.191229   -2.064718
H      -0.586188   -2.736549    0.600031
