21

C       0.109076    1.547330    0.047819
C      -0.040993    0.038190    0.102194
C      -1.312853   -0.482348   -0.529755
O      -1.292677   -0.163746   -1.916080
C       1.189617   -0.830219   -0.031546
C       0.475522   -0.745355    1.294309
C       1.115285   -0.079767    2.473501
C       2.428587   -0.502484    2.983551
O       2.282940    0.713608    2.247555
H       1.063047    1.872880    0.465467
H       0.045487    1.886529   -0.989766
H      -0.693680    2.042008    0.608945
H      -1.385365   -1.571663   -0.378401
H      -2.184403   -0.021809   -0.035609
H      -2.162424   -0.352489   -2.279896
H       1.117438   -1.749469   -0.602475
H       2.145005   -0.321911   -0.099422
H      -0.121081   -1.608733    1.584366
H       0.423815    0.364663    3.192209
H       2.668908   -0.381611    4.038730
H       2.965760   -1.295539    2.465885
