17

C      -0.018442    1.576743   -0.119456
C       0.045242    0.070489    0.010871
N       1.021909   -0.618738   -0.860034
C       1.374217   -1.575772    0.203115
C       0.775256   -0.581015    1.265214
C       1.772017    0.262065    1.905399
C       2.602973    0.951629    2.430870
C      -0.120887   -1.178942    2.250844
N      -0.850192   -1.663788    3.005081
H       0.974622    2.017366   -0.011173
H      -0.410901    1.844268   -1.106335
H      -0.684571    2.004732    0.636640
H      -0.964227   -0.362215   -0.042917
H       0.635151   -1.029187   -1.702679
H       0.813394   -2.519021    0.193563
H       2.442301   -1.781064    0.305759
H       3.336735    1.559559    2.900561
