20

C       0.000999    1.576910   -0.089398
C       0.103326    0.056533   -0.012780
C       0.782239   -0.623267   -1.225386
C       1.231811   -1.993970   -0.718531
C       2.559675   -2.071800   -0.014844
C       1.298005   -1.933329    0.796889
C       0.857664   -0.523405    1.235600
C       1.980240    0.316031    1.663943
N       2.868336    0.982864    1.986760
H       0.991105    2.039332   -0.147468
H      -0.565924    1.876596   -0.976576
H      -0.509392    1.990667    0.786471
H      -0.907658   -0.362541    0.062814
H       0.087630   -0.706241   -2.065952
H       1.633658   -0.026457   -1.574905
H       0.855522   -2.882073   -1.213222
H       3.061485   -3.032800    0.020255
H       3.232851   -1.221807   -0.074179
H       0.983918   -2.764324    1.416573
H       0.170800   -0.588761    2.085423
