16

C       0.048737    1.481921    0.152195
C      -0.044570   -0.007648   -0.053371
C      -1.254056   -0.620023   -0.156866
C      -1.502281   -2.052654   -0.274501
N      -2.568323   -2.502722   -0.826835
C      -0.549808   -2.911930    0.484241
N       0.726428   -2.843292    0.520921
C       1.459977   -1.844738   -0.085363
N       1.190632   -0.598324   -0.251047
H       0.588699    1.943036   -0.680677
H      -0.935509    1.944415    0.245662
H       0.625416    1.697543    1.058704
H      -2.150007   -0.006006   -0.153618
H      -2.629399   -3.519320   -0.718878
H      -1.017385   -3.708540    1.072311
H       2.464244   -2.166719   -0.360071
