17

C      -0.041525    1.555993    0.124142
C      -0.044959    0.032108    0.053037
O      -1.355072   -0.506509    0.118431
C       0.720331   -0.461990   -1.209451
O       2.026364    0.046853   -1.208551
C       0.782744   -1.990907   -1.264630
O       1.845257   -2.547409   -1.053768
C      -0.409638   -2.725337   -1.602605
C      -1.375241   -3.354495   -1.949632
H       0.980077    1.939741    0.100916
H      -0.583157    1.981574   -0.730957
H      -0.533762    1.887748    1.042224
H       0.478907   -0.376594    0.925133
H      -1.888765   -0.082572   -0.562969
H       0.178617   -0.107311   -2.101954
H       2.600616   -0.722331   -1.056382
H      -2.230747   -3.914661   -2.240489
