19

C       0.292913    1.428122   -0.138006
C       0.022462   -0.054158    0.118830
C       0.492545   -0.515854    1.490758
O      -1.394323   -0.312934    0.068124
C      -1.929222   -0.570382   -1.188199
C      -1.674621   -2.001436   -1.690533
O      -0.940886   -2.775403   -1.139956
C      -3.437745   -0.326518   -1.130392
O      -4.171383   -0.493238   -2.067877
H       1.368656    1.629253   -0.120059
H      -0.085936    1.745804   -1.115106
H      -0.187716    2.041369    0.630606
H       0.518856   -0.661059   -0.648022
H      -0.029343    0.037465    2.278123
H       0.284849   -1.580854    1.615757
H       1.567549   -0.348736    1.605430
H      -1.544278    0.099750   -1.979956
H      -2.236520   -2.252609   -2.614512
H      -3.785790    0.005391   -0.129945
