19

O       0.155907    1.366504   -0.241250
C       0.099265    0.000409    0.086342
C      -0.170302   -0.382987    1.559761
O      -1.376578   -1.083762    1.194750
C      -1.279064   -0.648168   -0.187052
C      -2.415041    0.277838   -0.590015
C      -3.777217   -0.433589   -0.461446
C      -4.900842    0.426163   -0.810114
C      -5.811269    1.154747   -1.102411
H       1.053067    1.681326   -0.096464
H       0.931900   -0.553904   -0.363328
H       0.557734   -1.043608    2.045409
H      -0.368120    0.484447    2.202652
H      -1.244408   -1.519741   -0.855366
H      -2.405285    1.173226    0.036682
H      -2.259161    0.610354   -1.621977
H      -3.788650   -1.327150   -1.100249
H      -3.887283   -0.792533    0.568581
H      -6.623559    1.789064   -1.356576
