15

N      -0.281546    1.241844    0.027905
C      -0.103587   -0.011236    0.005730
C      -1.217614   -1.039866    0.112618
C      -0.519347   -2.404160    0.099954
C      -0.960345   -3.349555   -1.013642
O      -1.864569   -3.119994   -1.771246
C       0.980682   -2.098807   -0.059992
O       1.883746   -2.893617   -0.137568
N       1.095458   -0.723665   -0.115461
H       0.594046    1.760078   -0.059550
H      -1.800895   -0.859886    1.017012
H      -1.896060   -0.948784   -0.739861
H      -0.624207   -2.964129    1.037673
H      -0.362979   -4.281414   -1.071878
H       1.998880   -0.285208   -0.223517
