20

C       0.087367    1.613985   -0.028003
C      -0.308035    0.157912   -0.299748
C       0.732090   -0.563613   -1.133789
O       2.010350   -0.693875   -0.460654
C       2.166215   -2.045803   -0.933093
C       0.682165   -2.093709   -1.386041
C      -0.224956   -2.914693   -0.480708
O       0.442868   -2.369492   -2.750627
H       1.050780    1.658731    0.487538
H       0.179997    2.179237   -0.961735
H      -0.658301    2.115733    0.595757
H      -0.446174   -0.369363    0.650516
H      -1.266211    0.119081   -0.834184
H       0.860783   -0.051157   -2.099660
H       2.863676   -2.115169   -1.778355
H       2.480504   -2.727101   -0.133381
H      -0.051121   -2.686224    0.574115
H      -1.278426   -2.729759   -0.710860
H      -0.025815   -3.985198   -0.619790
H       0.327666   -3.319805   -2.855050
