21

C      -0.141498    1.547183   -0.755271
C      -0.020646    0.169937   -0.140872
C       1.299478   -0.535083   -0.124290
C       0.702357   -0.018184    1.171909
O      -1.107643   -0.689647   -0.386897
C      -2.304192   -0.351101    0.264839
C      -3.360966    0.483689   -0.501723
O      -4.356452   -0.539590   -0.296223
C      -3.367855   -1.459755    0.212142
H       0.771684    2.125401   -0.588822
H      -0.307683    1.471680   -1.834876
H      -0.973363    2.111849   -0.319327
H       1.277838   -1.606361   -0.286067
H       2.161883   -0.026536   -0.540966
H       1.155809    0.845283    1.646824
H       0.303036   -0.756326    1.858281
H      -2.103043    0.024419    1.274922
H      -3.663825    1.445147   -0.070916
H      -3.111359    0.614760   -1.562929
H      -3.113593   -2.244067   -0.512758
H      -3.673942   -1.916889    1.159354
