15

C       0.335039    0.518490   -0.864518
C      -0.020287    0.148068    0.582302
O      -0.293907    1.299356    1.373352
C      -1.126086   -0.817955    0.631923
C      -2.060017   -1.575704    0.658676
C      -3.185032   -2.506256    0.705916
C      -4.237541   -2.187056   -0.268526
N      -5.070393   -1.942767   -1.029807
H       1.157671    1.237963   -0.860863
H       0.634965   -0.366875   -1.432350
H      -0.526585    0.968535   -1.368078
H       0.858716   -0.305150    1.056209
H      -1.111697    1.690112    1.044839
H      -2.841758   -3.531503    0.516406
H      -3.635523   -2.515621    1.706812
