18

C      -0.015286    1.439835   -0.049220
N      -0.005027    0.000369   -0.065640
C      -1.082064   -0.987450   -0.065041
C       0.023265   -2.106240   -0.052559
C       0.110498   -2.933302    1.235811
C       0.064049   -2.929553   -1.245739
C       0.101253   -3.615175   -2.232673
C       1.027918   -0.895421   -0.069844
O       2.222208   -0.767122   -0.058729
H       1.023501    1.778131   -0.039434
H      -0.512145    1.847844   -0.937722
H      -0.522897    1.828115    0.842238
H      -1.711977   -0.962514    0.831807
H      -1.708390   -0.970689   -0.962052
H      -0.703429   -3.661903    1.285385
H       1.060139   -3.472868    1.267149
H       0.055497   -2.282574    2.114015
H       0.143941   -4.218924   -3.105206
