16

O       0.077732    0.025977    0.172312
C       0.026594    1.214777    0.080425
C      -1.087835    2.269373   -0.027870
C      -1.315736    2.800070    1.393587
O      -0.048449    3.031605    2.014631
C       0.928082    3.407794    1.060223
C       0.320449    4.349392    0.003436
N      -0.104196    3.151611   -0.803292
C       1.014157    2.347833   -0.113105
H      -2.014831    2.037702   -0.555093
H      -1.910896    3.722999    1.365127
H      -1.848802    2.069155    2.008176
H       1.834781    3.667266    1.609301
H      -0.462638    5.043954    0.318720
H       1.072912    4.897248   -0.569732
H       1.971947    2.222027   -0.620497
