15

C       0.318021    1.365610    0.187121
N       0.089907   -0.066312    0.129518
N      -0.054052   -0.675357   -1.066383
N      -0.240598   -1.944942   -0.847694
C      -0.215439   -2.168007    0.491789
C      -0.005046   -0.972043    1.138272
C       0.080168   -0.635374    2.597006
C       1.362259   -0.036962    2.986201
N       2.367108    0.454045    3.275222
H       1.270076    1.585520    0.676275
H       0.338475    1.724250   -0.841428
H      -0.490844    1.864640    0.729173
H      -0.346609   -3.153136    0.910739
H      -0.720442    0.054398    2.894259
H      -0.069002   -1.550927    3.177339
