18

O      -0.074198    1.362000    0.059374
C       0.041061   -0.021224    0.042341
C       1.085454   -0.773718    0.863660
C       0.618157   -2.199749    0.483552
C      -0.893769   -2.132831    0.821985
C      -1.202135   -0.873995    0.019967
C      -0.256341   -0.873151   -1.181911
C       0.601880   -2.127896   -1.065674
H       0.671640    1.730119   -0.426979
H       2.113380   -0.565003    0.543476
H       1.002938   -0.566163    1.935566
H       1.177523   -3.025552    0.922376
H      -1.443571   -3.013016    0.471796
H      -1.078273   -2.012460    1.894794
H      -2.181244   -0.417988   -0.037652
H      -0.547285   -0.422237   -2.121642
H       1.604501   -2.004249   -1.490077
H       0.141722   -3.011069   -1.522330
