17

C      -0.161025    1.562469    0.049094
C       0.132288    0.073305    0.023060
N       1.334435   -0.373348   -0.773278
C       1.768373   -1.243037    0.332978
C       2.219882   -0.341376    1.418614
O       2.802177    0.879329    1.141775
C       0.706714   -0.615871    1.279368
C      -0.067002   -1.188044    2.323306
N      -0.700490   -1.653907    3.174595
H       0.692813    2.128049    0.425513
H      -0.412154    1.920610   -0.954693
H      -1.018880    1.759230    0.700524
H      -0.753867   -0.484032   -0.299779
H       1.073372   -0.890319   -1.604118
H       2.058384   -2.277774    0.194096
H       2.643585   -0.818900    2.296500
H       2.726395    0.987249    0.179377
