15

N      -0.093801    1.257176   -0.004447
C       0.000699   -0.007170   -0.012477
C      -1.234205   -0.931205    0.013306
N      -0.624233   -2.245608   -0.007447
C      -0.939396   -3.597851   -0.005799
C       0.273244   -4.233060   -0.038048
N       1.335124   -3.328176   -0.059793
C       0.728951   -2.176293   -0.039973
N       1.113385   -0.841410   -0.043316
H       0.819041    1.712720   -0.024594
H      -1.824601   -0.752845    0.916836
H      -1.867565   -0.744749   -0.858965
H      -1.953281   -3.958039    0.017394
H       0.458140   -5.295920   -0.047320
H       2.068590   -0.530151   -0.065062
