22

C       0.577790    0.473690   -1.254994
C       0.195982   -0.547553   -0.289101
C      -0.106413   -1.391869    0.516559
C      -0.510113   -2.384873    1.517436
N      -1.548890   -3.365548    1.162993
C      -2.312323   -3.234602   -0.074485
C      -1.355670   -4.368292    0.105788
C      -0.079767   -4.405941   -0.714837
C      -1.894314   -5.738763    0.472812
H       1.601517    0.821568   -1.077763
H       0.533807    0.089599   -2.280097
H      -0.082973    1.345758   -1.198791
H       0.370222   -2.943061    1.860013
H      -0.883280   -1.844193    2.397046
H      -3.385480   -3.390599    0.016217
H      -2.022246   -2.445178   -0.764703
H       0.261954   -3.409605   -0.998454
H       0.725462   -4.899326   -0.156596
H      -0.239940   -4.986792   -1.629874
H      -2.146351   -6.312405   -0.426622
H      -1.149160   -6.312150    1.036772
H      -2.789544   -5.647571    1.092219
