19

C      -0.106942    1.396601    0.083095
N      -0.067784   -0.052747    0.097325
N      -0.076764   -0.733344   -1.061942
C       0.006906   -2.012499   -0.705596
C       0.067215   -2.174337    0.694965
C       0.176104   -3.457346    1.462659
C       0.020744   -0.874641    1.184213
C       0.019991   -0.355532    2.585999
O      -1.163865    0.371100    2.922065
H       0.901705    1.821710    0.143350
H      -0.564052    1.708055   -0.856035
H      -0.699680    1.748849    0.928539
H       0.008665   -2.781127   -1.465722
H       1.215437   -3.794823    1.557418
H      -0.225698   -3.364295    2.476379
H      -0.377154   -4.259538    0.964376
H       0.180001   -1.196283    3.274540
H       0.840467    0.351929    2.750500
H      -1.915101   -0.191439    2.704173
