13

N      -0.020291    1.325244    0.323710
C       0.051780   -0.051494   -0.082725
C      -1.287017   -0.829320   -0.284317
O      -0.846968   -1.217977   -1.637572
C       0.291178   -0.451850   -1.555403
O       1.076841   -0.221722   -2.416485
C      -1.567966   -1.958342    0.571324
C      -1.791993   -2.883673    1.304081
H       0.896210    1.675612    0.576985
H      -0.372293    1.916967   -0.422151
H       0.724429   -0.598335    0.581900
H      -2.147295   -0.158596   -0.364231
H      -1.996194   -3.704862    1.946525
