16

O       0.089720    1.437090    0.187320
C       0.002646    0.061154    0.001938
C      -1.360117   -0.666783   -0.145589
C      -2.309893    0.138134   -1.011074
O      -1.615502    0.708598   -2.147699
C      -0.364082    0.231695   -2.457477
N       0.239634    0.538310   -3.522186
C       0.250765   -0.617165   -1.377522
O      -0.711002   -1.643964   -1.001733
H      -0.355755    1.883026   -0.542980
H       0.611939   -0.414155    0.771220
H      -1.856163   -1.109761    0.721762
H      -3.113134   -0.501613   -1.391171
H      -2.749876    0.973803   -0.456959
H      -0.345894    1.136874   -4.109880
H       1.226029   -1.005215   -1.665913
