20

C       0.071179    1.512676   -0.130224
N      -0.010614    0.056167   -0.073943
C      -1.175963   -0.511410    0.735317
C      -0.375097   -1.795152    1.053849
C      -0.364435   -1.695177    2.591789
C       1.142210   -1.815240    2.989916
C       1.872235   -0.979822    1.859883
C       0.604973   -0.592765    1.127029
C      -0.542260   -0.232522    2.136738
H       1.069472    1.805255   -0.472439
H      -0.652087    1.882276   -0.864615
H      -0.124215    2.020188    0.829572
H      -2.204644   -0.395106    0.391344
H      -0.234553   -2.656566    0.400820
H      -1.084960   -2.212974    3.226672
H       1.333403   -1.401093    3.984722
H       1.476343   -2.857227    2.997460
H       2.429684   -0.129985    2.263114
H       2.554417   -1.590864    1.262561
H      -0.609759    0.663679    2.753379
