23

C       0.059054    1.446004    0.094544
C       0.013992   -0.065064    0.069823
C       0.043926   -0.708159   -1.102849
C       0.012508   -2.188770   -1.403091
C       1.390009   -2.877168   -1.299396
C       2.077309   -2.873602    0.040716
C       1.603978   -2.586668    1.254413
C       0.207833   -2.166932    1.654370
C      -0.076861   -0.663789    1.458569
H       0.950655    1.806230    0.624484
H       0.066373    1.870882   -0.912274
H      -0.805517    1.859706    0.630528
H       0.127147   -0.080271   -1.989428
H      -0.716326   -2.714970   -0.784559
H      -0.337240   -2.317106   -2.433950
H       1.293625   -3.917752   -1.645561
H       2.069209   -2.402465   -2.021626
H       3.128745   -3.154830   -0.016845
H       2.314882   -2.637366    2.077715
H      -0.551077   -2.763746    1.146317
H       0.078130   -2.380741    2.721548
H       0.616219   -0.101000    2.100579
H      -1.075146   -0.440891    1.866191
