17

O      -0.330919    0.303217    0.574446
C       0.114681    1.009120   -0.293913
C       1.234496    2.004061   -0.131902
C       1.000591    3.422800   -0.704210
O       1.236694    4.018414    0.581696
C       1.484283    2.740671    1.212958
C       0.555248    2.490626    2.404653
C       0.858627    3.386304    3.513982
C       1.128315    4.123006    4.424081
H      -0.282212    0.952504   -1.335078
H       2.134611    1.526409   -0.535991
H       1.723148    3.756488   -1.457687
H      -0.014565    3.622233   -1.073326
H       2.525570    2.673749    1.550328
H      -0.485645    2.618980    2.089118
H       0.655062    1.444942    2.715322
H       1.355709    4.776663    5.229120
