17

C      -0.081209    1.555766   -0.013002
C       0.069034    0.033335    0.003877
N       0.706454   -0.485610   -1.200373
C       0.086074   -0.815328   -2.377336
C       1.086100   -1.198958   -3.238937
N       2.305122   -1.112300   -2.631615
C       2.055148   -0.677078   -1.403913
C       3.011516   -0.428030   -0.392954
C       3.808207   -0.206276    0.482875
H       0.897998    2.037763   -0.075881
H      -0.681920    1.882095   -0.866870
H      -0.573829    1.893541    0.903797
H       0.677661   -0.279281    0.855929
H      -0.906379   -0.452704    0.099405
H      -0.984754   -0.754785   -2.485496
H       0.988287   -1.537567   -4.259273
H       4.525969   -0.018497    1.242643
