20

C       0.025490    1.488358    0.059113
N      -0.018955    0.030645    0.056613
C       0.823164   -0.520752    1.108753
C      -1.378146   -0.542476   -0.027797
C      -1.312444   -2.080456   -0.163527
C      -2.317760   -0.161849    1.146619
C      -1.987494   -0.035272   -1.280659
N      -2.495968    0.342523   -2.247093
H       1.058190    1.808578   -0.110211
H      -0.585686    1.886371   -0.754288
H      -0.313254    1.944947    1.005859
H       0.477433   -0.289807    2.132658
H       0.917072   -1.603845    1.013543
H       1.825650   -0.095703    1.001428
H      -1.043172   -2.542569    0.788885
H      -2.289971   -2.467927   -0.458934
H      -0.578478   -2.363400   -0.921331
H      -2.447346    0.919832    1.220936
H      -3.304487   -0.611399    1.008005
H      -1.903691   -0.530905    2.088993
