20

C      -0.006729    1.495275   -0.283750
C       0.061425    0.065124    0.268432
C      -1.290692   -0.617733    0.240857
N      -1.969746   -1.127759   -0.953043
C      -0.934741   -1.794348   -1.833158
C      -0.513869   -2.799646   -0.735928
C      -1.507892   -2.092244    0.177182
C      -2.504443   -2.772777    1.023358
O      -2.440385   -3.937172    1.338567
H       0.970870    1.982652   -0.226809
H      -0.328831    1.500654   -1.329663
H      -0.718748    2.104046    0.283269
H       0.811126   -0.510608   -0.280811
H       0.400998    0.086256    1.311235
H      -2.023492   -0.106839    0.867154
H      -1.442815   -2.255834   -2.680782
H      -0.170571   -1.109248   -2.210872
H      -0.821294   -3.824231   -0.946752
H       0.530440   -2.805763   -0.414043
H      -3.344892   -2.120302    1.351776
