18

C      -0.275919    1.658513   -0.177651
C      -0.001238    0.175091   -0.032030
C       0.735203   -0.571858   -1.218359
C       1.856551   -0.825617   -0.214366
C       3.026025   -1.267472    0.374159
C       4.190255   -2.047989   -0.139335
N       2.973451   -0.831516    1.677169
N       1.864185   -0.167119    1.930417
N       1.210251   -0.176437    0.763103
H       0.608620    2.185943   -0.546292
H      -1.097878    1.818158   -0.882560
H      -0.561868    2.094974    0.783549
H      -0.880110   -0.362144    0.334652
H       0.219024   -1.459911   -1.589183
H       0.991006    0.076629   -2.059726
H       4.706580   -1.524852   -0.951640
H       4.903072   -2.203974    0.673036
H       3.886985   -3.028299   -0.522535
