18

C       0.004395    1.483323   -0.246915
C      -0.054897   -0.028007   -0.036865
O       0.567849   -0.399593    1.197510
C      -1.499544   -0.575022    0.094192
C      -1.498310   -2.113569    0.158138
O      -2.120085   -0.012856    1.240113
C      -2.346564   -0.142371   -1.097910
O      -2.045330   -0.349347   -2.245376
H       1.043330    1.831894   -0.218258
H      -0.404045    1.759203   -1.222809
H      -0.561335    1.998866    0.533569
H       0.429481   -0.540763   -0.878730
H       1.387200    0.096467    1.284103
H      -0.848693   -2.447820    0.970255
H      -2.511896   -2.479088    0.343808
H      -1.137781   -2.534700   -0.784386
H      -1.471842   -0.096312    1.951467
H      -3.288204    0.375038   -0.811346
