17

O       0.260871    1.417537   -0.095352
C       0.116763    0.032951    0.007511
C       0.059249   -0.679696    1.388635
C      -0.952322    0.160244    2.188225
C      -2.089229    0.201500    1.102034
C      -2.619708    1.507281    0.754590
C      -3.104014    2.569341    0.467322
C      -1.308419   -0.554260   -0.015356
O      -0.777687   -1.684446    0.735221
H       1.196795    1.626892   -0.168834
H       0.759035   -0.524832   -0.681782
H       0.931666   -1.089214    1.897900
H      -1.271551   -0.335931    3.105802
H      -0.569887    1.155529    2.420251
H      -2.915482   -0.447821    1.408331
H      -3.512895    3.514247    0.208943
H      -1.843572   -0.818897   -0.925990
