21

C      -0.090594    1.534275    0.030281
C       0.051949    0.013681    0.046423
C       1.000164   -0.563971   -1.070422
C       2.037390   -1.327708   -0.212203
C       3.186621   -2.027736   -0.890992
C       1.093570   -2.011836    0.844942
C       0.771183   -0.550020    1.297958
C       2.242761   -0.303992    0.924735
O       3.181787    0.264817    1.400534
H       0.884651    2.026640    0.114829
H      -0.556972    1.873422   -0.900756
H      -0.712329    1.883193    0.861716
H      -0.941933   -0.440065   -0.031876
H       0.478424   -1.235315   -1.759512
H       1.466993    0.228603   -1.664480
H       3.777746   -1.318329   -1.479922
H       3.856968   -2.488976   -0.159005
H       2.832381   -2.811121   -1.570082
H       0.255628   -2.586788    0.441562
H       1.636858   -2.592062    1.593592
H       0.365723   -0.308889    2.278787
