17

C      -0.084966    1.464179    0.026698
C      -0.024886    0.014275    0.011609
C       0.026730   -1.194981    0.001310
C       0.083931   -2.552870   -0.011130
C       0.135664   -3.763543   -0.011278
C       0.182295   -5.217489   -0.076775
O      -1.119321   -5.814704    0.018913
C       0.866928   -5.719060   -1.364781
O       0.839563   -7.124697   -1.408609
H       0.888651    1.895285    0.285528
H      -0.375350    1.859782   -0.953022
H      -0.814049    1.822181    0.762209
H       0.736144   -5.620574    0.779541
H      -1.718070   -5.289276   -0.524868
H       0.359032   -5.264624   -2.232334
H       1.913425   -5.400181   -1.383359
H      -0.060094   -7.372738   -1.157170
