19

C       0.137103    1.571111    0.024978
C       0.221039    0.042600    0.043003
C       0.427520   -0.552818   -1.357387
C       0.607730   -2.061238   -1.363459
C      -0.571670   -2.901305   -0.920512
C       1.615510   -2.658758   -2.253190
O       1.879493   -2.505264   -0.856561
H       1.053294    2.013022   -0.382297
H      -0.698754    1.916014   -0.594279
H      -0.007093    1.973860    1.032302
H       1.050754   -0.277993    0.683834
H      -0.693308   -0.363980    0.491802
H      -0.423785   -0.291906   -2.001227
H       1.315792   -0.096627   -1.809831
H      -1.441630   -2.718065   -1.560787
H      -0.323642   -3.964474   -0.966422
H      -0.858184   -2.666785    0.109270
H       1.494731   -3.686429   -2.595604
H       2.202531   -2.021012   -2.913729
