18

O      -0.804732    1.160212   -0.129211
C       0.281351    0.947059    0.349031
C       1.501727    1.789106    0.099313
C       1.375113    2.978605   -0.881407
C       2.127754    3.869310    0.142425
C       1.605213    5.294020    0.359475
C       2.296991    5.981424    1.449104
N       2.859270    6.499174    2.315888
C       1.855065    2.807412    1.243130
H       0.436132    0.102960    1.059709
H       2.355821    1.136918   -0.110753
H       1.819757    2.865872   -1.871667
H       0.324227    3.259825   -0.994095
H       3.196374    3.908645   -0.087571
H       1.722403    5.883706   -0.557624
H       0.532362    5.270432    0.585129
H       0.975613    3.058979    1.844161
H       2.676330    2.548957    1.912525
