13

C      -0.028682    1.498390    0.038855
N      -0.006379    0.038281    0.012719
C      -0.042352   -0.696060   -1.159414
N      -0.024661   -1.969072   -1.226265
C       0.036787   -2.713670   -0.012351
O       0.055999   -3.914064   -0.020262
N       0.074655   -1.985009    1.208968
C       0.051971   -0.724173    1.148373
F       0.084864    0.010851    2.247934
H       0.874384    1.891444    0.511187
H      -0.076045    1.854652   -0.991313
H      -0.902744    1.863033    0.583074
H      -0.088894   -0.092116   -2.064556
