13

N      -0.006010    1.360729    0.124187
C      -0.068077   -0.004336    0.035808
N      -1.192291   -0.648270    0.012563
C      -1.168498   -2.023581   -0.006923
C      -0.002983   -2.700331   -0.011783
O       0.131094   -4.034668   -0.020064
O       1.186331   -2.047607   -0.010485
C       1.250903   -0.667481    0.003111
O       2.322291   -0.120987   -0.026590
H       0.872252    1.780382   -0.136987
H      -0.848240    1.863093   -0.105911
H      -2.112330   -2.550567   -0.017880
H       1.073349   -4.244340   -0.040665
