18

C       0.099921    1.495793    0.031329
C       0.038069    0.041178    0.031945
C      -0.008350   -1.163448    0.030071
C      -0.050866   -2.596253    0.021376
C      -0.526255   -3.378811    1.251031
C      -1.357894   -3.363468   -0.001792
C      -2.682787   -2.641797   -0.042515
O      -1.287799   -4.503241   -0.820510
H       1.069101    1.849348   -0.338210
H      -0.675323    1.931846   -0.609005
H      -0.035492    1.903526    1.039554
H       0.736302   -3.086051   -0.544325
H       0.014525   -4.289440    1.482401
H      -0.861346   -2.801714    2.105521
H      -2.644304   -1.713438    0.531748
H      -2.948166   -2.398196   -1.075891
H      -3.478015   -3.270978    0.375838
H      -1.873419   -5.170485   -0.444580
