17

O      -0.022303   -0.063555   -0.051613
C       0.047645    1.121228    0.160967
C       1.309327    1.916992    0.087147
C       2.667164    1.283914   -0.317970
C       3.039833    2.764346   -0.670658
C       1.542243    2.927486   -1.093363
C       2.994474    3.393228    0.714221
O       3.758280    4.157673    1.234705
C       1.695247    2.787632    1.305731
H      -0.861215    1.713169    0.420043
H       3.247623    0.773374    0.453943
H       2.580145    0.655717   -1.205546
H       3.870764    3.037884   -1.316152
H       1.343403    2.476708   -2.067334
H       1.085959    3.918605   -1.025920
H       0.966479    3.566529    1.550472
H       1.903861    2.209749    2.210840
