25

C      -0.461252    1.369148    0.086304
C       0.040869   -0.072958    0.146258
C       0.770327   -0.541845   -1.136163
C       1.704764   -1.695666   -0.693364
C       1.587742   -1.796433    0.857851
C       0.642955   -2.930220    1.279795
O       2.855083   -2.001308    1.483587
C       1.035664   -0.408616    1.287029
C       2.145442    0.635991    1.467824
H       0.355519    2.074444   -0.096834
H      -1.188043    1.490860   -0.724337
H      -0.955314    1.662704    1.019167
H      -0.838338   -0.715284    0.285895
H       0.062698   -0.843180   -1.914284
H       1.355266    0.284437   -1.554655
H       1.448347   -2.646063   -1.172960
H       2.746728   -1.480519   -0.944843
H       1.025381   -3.896277    0.926497
H       0.563161   -2.971131    2.370138
H      -0.360668   -2.809809    0.861352
H       3.155115   -2.886860    1.254554
H       0.502565   -0.502208    2.240986
H       2.695636    0.821335    0.539057
H       1.725928    1.589015    1.802882
H       2.867229    0.297035    2.212325
