17

C       0.171183    1.455920   -0.001058
C      -0.197934    0.036058    0.411349
N      -1.223406   -0.512602   -0.492772
C      -1.601958   -1.829191   -0.298791
C      -2.719480   -2.467828    0.142442
O      -3.849697   -1.898665    0.623136
N      -2.574446   -3.832437    0.016351
C      -1.381239   -3.975415   -0.471777
O      -0.728327   -2.822376   -0.705510
H       0.950894    1.855741    0.653525
H       0.533707    1.477264   -1.032574
H      -0.694304    2.125245    0.068105
H       0.678322   -0.615985    0.340029
H      -0.528886    0.016347    1.462195
H      -2.041494    0.083442   -0.531704
H      -4.462515   -2.618685    0.811981
H      -0.855876   -4.891476   -0.688715
