19

C       0.041735    1.661358   -0.390166
C      -0.029578    0.194091    0.057499
C       0.700250   -0.746638   -0.908304
O       1.983044   -0.288845   -1.306393
C       3.057114   -0.419407   -0.450819
N       4.236015   -0.471489   -0.936193
C       2.857812   -0.441508    0.990507
C       1.762139   -0.222414    1.753198
N       0.456345   -0.012532    1.413934
H       1.074793    2.014449   -0.399767
H      -0.368339    1.776493   -1.398804
H      -0.537707    2.296207    0.287044
H      -1.080922   -0.123771    0.054652
H       0.761590   -1.751698   -0.474143
H       0.124827   -0.807108   -1.836113
H       4.182474   -0.450717   -1.955994
H       3.783026   -0.612706    1.525134
H       1.904729   -0.247997    2.830339
H      -0.145275    0.307800    2.154363
