19

C      -0.097372    1.610563    0.000994
C       0.083227    0.088692    0.032335
C      -1.119987   -0.634810   -0.573246
C       1.359114   -0.686916   -0.233260
C       2.651049   -0.148115    0.441153
N       2.358114    1.117301    1.164919
C       2.011971   -0.196616    1.768846
C       0.694382   -0.737367    1.147735
H       0.684702    2.102592   -0.577745
H      -1.064034    1.853496   -0.455537
H      -0.075292    2.044904    1.000762
H      -1.266689   -0.328171   -1.614881
H      -0.999185   -1.722630   -0.554816
H      -2.033561   -0.386340   -0.021703
H       1.396751   -1.473553   -0.978107
H       3.659552   -0.397802    0.137681
H       3.234304    1.411837    1.597425
H       2.411651   -0.492509    2.730210
H       0.158766   -1.567509    1.593818
