22

C      -0.029660    1.544306    0.109656
C       0.001536    0.025987   -0.029800
C       0.583494   -0.410602   -1.384558
N       0.128586   -1.747553   -1.764629
C       1.100295   -2.673284   -2.339301
C       0.571271   -2.890810   -0.963331
C       1.421792   -2.705044    0.279426
C       0.724811   -1.837248    1.338680
O       0.779862   -0.450899    1.065126
H       0.974301    1.962455   -0.017586
H      -0.689103    1.989340   -0.640791
H      -0.389060    1.821940    1.103405
H      -1.022342   -0.375561    0.046239
H       0.245617    0.277836   -2.168405
H       1.679863   -0.317111   -1.323530
H       0.754127   -3.274243   -3.176643
H       2.133983   -2.337421   -2.420547
H      -0.216839   -3.634106   -0.839344
H       1.632291   -3.692357    0.709299
H       2.389839   -2.250050    0.045649
H      -0.320771   -2.166880    1.463717
H       1.227898   -1.956510    2.303942
