16

N       0.005574    1.321335   -0.199679
C       0.049530    0.021475    0.213376
O       1.064762   -0.526101    0.597211
C      -1.238910   -0.657042    0.160579
C      -2.275252   -1.272482    0.143409
C      -3.503849   -2.052440    0.123508
C      -3.260664   -3.531005   -0.262772
C      -4.526845   -4.350871   -0.139125
O      -4.981388   -5.049444   -1.005804
H       0.865331    1.844780   -0.220931
H      -0.839116    1.735520   -0.552168
H      -3.973954   -2.005235    1.115188
H      -4.219372   -1.602287   -0.575825
H      -2.873267   -3.618205   -1.280123
H      -2.516770   -3.954586    0.424731
H      -5.032110   -4.264637    0.852683
