18

C       0.076987    1.545487    0.011780
C       0.062891    0.093989    0.019040
C       0.052607   -1.116857    0.025060
C       0.041265   -2.475290    0.029842
C       0.029453   -3.688105    0.047013
C       0.043587   -5.119916    0.002304
C      -0.400535   -5.919928    1.196308
N      -1.200457   -5.918642   -0.012078
C      -2.471931   -5.206879    0.036332
H       1.103244    1.930077    0.006260
H      -0.432388    1.944471   -0.872824
H      -0.424933    1.951740    0.897306
H       0.823448   -5.543369   -0.627436
H       0.110926   -6.848508    1.436100
H      -0.758106   -5.350782    2.052853
H      -2.457060   -4.310279    0.673251
H      -2.752534   -4.903731   -0.976524
H      -3.234661   -5.894167    0.414728
