17

C      -0.013457    1.466074    0.002176
N      -0.013209    0.012335    0.026320
C      -1.354285   -0.538112   -0.063409
C      -1.352305   -2.056679   -0.124436
O      -2.236403   -2.705961   -0.629678
N      -0.260289   -2.663189    0.483491
C       0.781036   -2.035081    1.155100
O       1.652840   -2.666586    1.702478
C       0.705629   -0.517246    1.171901
H       1.016956    1.833558    0.000671
H      -0.502810    1.818163   -0.910713
H      -0.537293    1.912910    0.868142
H      -2.000292   -0.245314    0.791632
H      -1.847170   -0.182668   -0.971186
H      -0.240419   -3.676409    0.467460
H       1.733168   -0.146459    1.175848
H       0.251295   -0.222429    2.141855
