13

N       0.013662    1.447536    0.152488
C      -0.020360    0.057424    0.044873
C      -1.096906   -0.789924    0.030179
N      -0.586045   -2.077740   -0.003105
C      -1.344964   -3.251099   -0.029128
O      -0.903043   -4.363308   -0.067643
N       0.769544   -2.089438   -0.014838
C       1.112064   -0.818054    0.017544
H       0.820294    1.864887   -0.291284
H      -0.829755    1.905381   -0.164281
H      -2.159043   -0.607177    0.043432
H      -2.423714   -3.006407   -0.009209
H       2.157580   -0.540473    0.021614
