13

O      -0.035580    1.437772    0.099502
C      -0.023595    0.071428    0.038553
C      -0.286682   -0.749971   -1.190033
C      -1.163652   -0.963312    0.030101
O      -0.492869   -1.788627    0.978700
C       0.565499   -0.800119    1.141326
C      -2.582430   -0.858264    0.045632
N      -3.734978   -0.751094    0.047671
H       0.285612    1.797735   -0.733498
H      -0.773526   -0.205218   -1.994218
H       0.377126   -1.554231   -1.497122
H       1.561613   -1.225394    0.981207
H       0.501319   -0.326725    2.126071
