13

C      -0.029822    1.532660    0.016665
C      -0.007229    0.031916   -0.011674
C      -0.040681   -0.729119   -1.174891
N      -0.020349   -2.067777   -1.191655
C       0.035398   -2.657535   -0.003014
N       0.072400   -2.049384    1.188648
C       0.050275   -0.739600    1.151776
F       0.086273   -0.110058    2.320968
H       0.861134    1.933108    0.511042
H      -0.071421    1.937993   -0.997282
H      -0.896655    1.905512    0.571874
H      -0.086119   -0.231864   -2.142153
H       0.052903   -3.743850    0.010650
