22

C      -0.080889    1.547180    0.083780
C       0.044550    0.018992    0.022982
C       0.687208   -0.456234   -1.288596
N       0.758341   -0.505788    1.195088
C       0.212663   -1.586790    2.004973
C       1.169267   -1.650778    3.212699
C       2.491321   -1.107596    2.652848
C       2.068758   -0.222927    1.477173
O       2.773302    0.570668    0.880734
H       0.906642    2.009502    0.043845
H      -0.676268    1.907150   -0.761214
H      -0.574920    1.859548    1.008839
H      -0.963000   -0.408349    0.086963
H       1.700521   -0.058747   -1.376990
H       0.735891   -1.549206   -1.328126
H       0.098552   -0.111971   -2.144653
H      -0.819781   -1.369311    2.299488
H       0.200947   -2.535955    1.446524
H       0.799416   -0.993151    4.005064
H       1.245216   -2.658817    3.625251
H       3.088149   -0.537830    3.367095
H       3.131684   -1.905026    2.257094
