23

C      -0.155995    1.622722   -0.011394
C       0.025714    0.112330    0.016553
C       1.154087   -0.606494   -0.798321
C       2.444678    0.048863   -0.261297
C       2.112503    0.037400    1.270407
C       0.717457   -0.621630    1.215172
C       0.967339   -1.757488    0.206682
C       0.186530   -3.014784    0.027822
C       1.675189   -3.062693    0.350265
H       0.768737    2.169125    0.192363
H      -0.522325    1.949037   -0.991362
H      -0.895018    1.936113    0.734700
H      -0.929972   -0.377195   -0.194369
H       1.074172   -0.762305   -1.875935
H       3.330168   -0.547089   -0.498331
H       2.605613    1.055984   -0.656094
H       2.822152   -0.564555    1.844413
H       2.092233    1.038284    1.710723
H       0.198846   -0.792615    2.160542
H      -0.508714   -3.314086    0.806562
H      -0.122851   -3.300571   -0.973170
H       2.353449   -3.378009   -0.437106
H       1.967380   -3.391578    1.343177
