16

C       0.027493    1.537821    0.031043
C      -0.157426    0.032568   -0.130365
N       0.791677   -0.494369   -1.104256
C       0.839918   -1.845633   -1.364955
N       1.222292   -2.286087   -2.549170
O       1.232504   -3.683900   -2.440562
C       0.839629   -4.022283   -1.210247
C       0.568694   -2.924625   -0.463344
H       1.048147    1.772011    0.346505
H      -0.166183    2.061915   -0.911810
H      -0.668507    1.930886    0.777028
H       0.027411   -0.462645    0.829436
H      -1.200751   -0.190083   -0.407669
H       0.867434    0.057406   -1.949055
H       0.800332   -5.080869   -1.001697
H       0.239384   -2.884083    0.560370
