19

C      -0.099135    0.749798   -2.163887
C      -0.002665   -0.341179   -1.117534
C       1.303852   -0.662339   -0.359884
C       2.532117    0.133707   -0.564435
O       3.642833   -0.345761   -0.580385
C       0.080464   -0.028442    0.330000
O       0.144058    1.323787    0.666862
C      -0.667049   -0.843646    1.355142
O      -0.019428   -0.606774    2.602342
H       0.341512    1.685338   -1.817456
H       0.399015    0.449120   -3.090671
H      -1.150110    0.949192   -2.397252
H      -0.564508   -1.239408   -1.363109
H       1.501873   -1.710674   -0.161476
H       2.380079    1.224707   -0.690730
H       0.400187    1.344528    1.598850
H      -1.713759   -0.506803    1.386502
H      -0.652224   -1.909347    1.086131
H      -0.614455   -0.859955    3.313428
