18

C      -0.140708    1.593717    0.198582
C      -0.052538    0.055467    0.096399
C       0.748601   -0.511240    1.184213
N       1.370161   -0.960014    2.048981
C      -1.429799   -0.565819    0.074246
C      -2.301667   -0.933089    1.233011
C      -1.981500   -1.968531    0.166165
C      -2.735367   -1.611514   -1.108681
O      -2.226409   -0.245332   -1.072363
H       0.852554    2.043993    0.136851
H      -0.753330    1.968587   -0.624298
H      -0.602131    1.890272    1.143663
H       0.444249   -0.204770   -0.847153
H      -1.790008   -1.096550    2.175960
H      -3.297862   -0.505429    1.307479
H      -1.492133   -2.907350    0.385174
H      -2.370241   -2.129667   -2.001738
H      -3.830340   -1.643429   -1.079700
