21

O      -0.092530    1.427496   -0.359237
C      -0.010265    0.074788    0.064798
C      -1.390944   -0.549807   -0.084473
C      -1.429261   -2.017793    0.356286
C      -2.803218   -2.632699    0.204014
C      -3.251614   -3.206147   -1.108607
C      -2.987780   -4.141176    0.065396
C      -1.862464   -5.029073    0.047772
C      -0.924735   -5.783608    0.043952
H       0.778912    1.823778   -0.269986
H       0.719353   -0.489216   -0.539624
H       0.318033    0.005787    1.115325
H      -2.103850    0.041975    0.502954
H      -1.703153   -0.463273   -1.131918
H      -0.706440   -2.603707   -0.223494
H      -1.111538   -2.097810    1.404680
H      -3.577902   -2.149405    0.794757
H      -4.280989   -3.077050   -1.423478
H      -2.530181   -3.231870   -1.918101
H      -3.870670   -4.549024    0.549249
H      -0.099236   -6.450956    0.037085
