14

O      -0.210997    1.463529    0.110355
C      -0.114549    0.098576    0.034394
C      -1.324989   -0.801235   -0.039882
C      -0.738976   -1.943896   -0.871412
N       0.525814   -1.697487   -1.511147
C       0.923857   -0.662296   -0.870346
O       1.881437   -0.835387    0.160746
C       0.629188   -0.848524    0.994503
C      -0.528759   -1.890054    0.672613
H       0.663426    1.845331   -0.033170
H      -2.370282   -0.534362    0.004454
H      -1.388865   -2.708356   -1.281268
H       0.847582   -0.633682    2.039118
H      -0.868600   -2.676772    1.330264
