19

C       0.050903    1.562605   -0.019389
C       0.027518    0.035945    0.052090
O       0.564340   -0.425483    1.293477
C      -1.387889   -0.531257   -0.022939
C      -1.415385   -2.073490   -0.151785
C      -0.741656   -2.784410    1.037632
O       0.106986   -3.624438    0.913774
C      -2.787591   -2.565301   -0.229457
C      -3.919720   -2.970183   -0.240740
H       1.075664    1.936476    0.075991
H      -0.350164    1.920161   -0.973391
H      -0.543356    1.990988    0.793665
H       0.616357   -0.373335   -0.784314
H       1.524396   -0.381472    1.255573
H      -1.934781   -0.230051    0.878208
H      -1.918948   -0.103232   -0.878226
H      -0.860654   -2.381909   -1.046245
H      -1.153847   -2.493013    2.025402
H      -4.916766   -3.334461   -0.272705
