13

C       0.902148    1.093366   -0.058453
O       0.152376    0.157856   -0.832978
C      -0.411972    0.605247    0.400227
C      -0.539357   -0.418932    1.454203
C      -0.111146   -1.705654    1.449962
O      -0.460063   -2.267924    2.647158
C      -1.090871   -1.275682    3.311708
N      -1.176571   -0.160002    2.665388
H       1.802508    0.699149    0.408952
H       0.985530    2.092551   -0.483450
H      -1.265067    1.276486    0.306997
H       0.396078   -2.334559    0.740922
H      -1.458712   -1.508332    4.298623
