22

C      -0.583061   -0.932957   -1.067626
C      -0.377563   -1.070906    0.430983
O       0.796966   -0.355641    0.784449
C       1.088594   -0.383707    2.169534
C       1.616826   -1.724597    2.630232
C       2.841151   -2.289671    1.957893
C       4.128187   -1.995581    2.751528
N       0.974005   -2.270517    3.591378
O       1.551225   -3.488751    3.988054
H       0.267863   -1.351798   -1.612560
H      -1.488504   -1.463032   -1.377917
H      -0.682774    0.119881   -1.346560
H      -1.240637   -0.663522    0.982689
H      -0.286911   -2.130123    0.715023
H       1.859847    0.382316    2.318291
H       0.211487   -0.116308    2.774855
H       2.721466   -3.371843    1.854528
H       2.907418   -1.858848    0.954634
H       4.284386   -0.918922    2.874771
H       4.077070   -2.449317    3.744104
H       5.000295   -2.401725    2.230510
H       0.953655   -3.776874    4.685983
