14

N      -0.023895    1.364294    0.009930
C       1.296223    1.763483   -0.000723
N       2.142706    0.772884   -0.014229
C       1.345652   -0.364462   -0.012698
C      -0.020878   -0.012239    0.002421
C      -1.010740   -0.990369    0.006686
C      -0.549296   -2.300709   -0.004881
N       0.747091   -2.668094   -0.019403
C       1.679289   -1.720302   -0.023274
H      -0.828625    1.967819    0.021020
H       1.560209    2.812012    0.002397
H      -2.070942   -0.765013    0.018163
H      -1.266348   -3.117600   -0.002373
H       2.719611   -2.035549   -0.035038
