16

O      -0.187529    1.299616   -0.075484
C       0.003171   -0.063950   -0.060877
C       0.960295   -0.892183   -0.911377
C       0.111178   -2.119269   -0.460152
C       0.395054   -2.244484    1.063753
C      -0.339680   -0.917040    1.211803
C      -1.071604   -1.098179   -0.107639
O      -2.375792   -0.986464   -0.499019
H       0.473786    1.706983    0.494833
H       0.830197   -0.671753   -1.974334
H       2.027279   -0.906614   -0.657958
H       0.034360   -2.996952   -1.097951
H      -0.153570   -3.072348    1.523717
H       1.448309   -2.297044    1.363108
H      -0.689156   -0.404825    2.100124
H      -2.904549   -1.619085    0.000349
