15

C      -0.424063    1.377963    0.012936
N      -0.035265   -0.027866    0.002014
C       0.029340   -0.744921   -1.160026
N       0.352566   -1.975212   -1.315565
O       0.683934   -2.674845   -0.127388
C       0.660910   -2.083712    1.100990
N       0.958471   -2.722603    2.151379
C       0.273302   -0.639916    1.209482
N       0.217034    0.014568    2.296699
H       0.378285    1.985724    0.438139
H      -0.629777    1.695744   -1.009890
H      -1.313314    1.516431    0.632623
H      -0.223108   -0.214234   -2.071484
H       1.202023   -3.690360    1.937220
H       0.478072   -0.609975    3.061282
