18

C       0.285636    1.544030    0.154135
C      -0.234940    0.138210   -0.165881
C       0.485139   -0.480866   -1.341692
N       1.780815   -1.117322   -1.063225
C       0.662190   -1.948327   -1.478261
C       0.064076   -3.159444   -0.774376
O      -0.046992   -3.824661   -2.081060
C       0.540480   -2.765889   -2.737573
O       0.816997   -2.668442   -3.890443
H       1.353427    1.513794    0.390696
H       0.146590    2.221448   -0.695394
H      -0.241404    1.972056    1.011615
H      -0.108571   -0.511783    0.707011
H      -1.309010    0.174754   -0.387256
H       0.394527    0.058485   -2.284641
H       2.428325   -1.001384   -1.840688
H       0.741156   -3.705685   -0.115261
H      -0.920152   -3.036389   -0.318339
