18

C      -0.017856   -1.247484    0.359594
C       0.021903   -0.061014    0.169195
C       0.070057    1.390279   -0.057842
O      -0.628385    2.110324    0.948825
C       0.273082    2.260387    2.047984
C       1.666191    2.483939    1.424790
C       1.504528    1.949935   -0.000034
C       2.588948    1.417757   -0.850201
N       2.036900    2.764410   -1.098983
H      -0.059941   -2.295914    0.524882
H      -0.415654    1.622683   -1.012735
H      -0.083966    3.101955    2.645015
H       0.258912    1.356269    2.672636
H       1.928726    3.543066    1.379728
H       2.448533    1.960155    1.979826
H       3.610568    1.402787   -0.479726
H       2.347580    0.612131   -1.539600
H       1.411407    2.742921   -1.901454
