21

C      -0.004861    1.442886   -0.084901
C       0.006837   -0.049423    0.003093
O       0.203244   -0.724395   -1.230176
C       0.159402   -2.097614   -0.784681
C       0.349396   -3.040884   -1.944865
C       1.205886   -2.096083    0.360251
C       0.634084   -0.892412    1.092810
C      -0.884801   -0.917827    0.864727
C      -1.176514   -2.136063    0.002622
H       0.944817    1.819024   -0.479465
H      -0.807868    1.789624   -0.743687
H      -0.161417    1.881035    0.904810
H       1.315309   -2.868436   -2.428610
H       0.315752   -4.079489   -1.602411
H      -0.437424   -2.898311   -2.691406
H       1.189789   -3.021407    0.944053
H       2.217881   -1.924907   -0.019307
H       1.080963   -0.461321    1.979115
H      -1.586098   -0.505931    1.578591
H      -2.037557   -1.996368   -0.658125
H      -1.302127   -3.063200    0.570029
