15

C       0.173377    1.526305    0.183229
C      -0.086895    0.027829   -0.021743
O      -1.474284   -0.238082   -0.117401
C       0.649936   -0.490078   -1.226078
N       0.001736   -0.948763   -2.285165
N       1.012399   -1.278617   -3.125285
C       2.198402   -1.011971   -2.544970
N       2.010922   -0.509486   -1.341292
H       1.242714    1.718824    0.307567
H      -0.190368    2.095358   -0.678103
H      -0.358743    1.868599    1.074524
H       0.295270   -0.510663    0.857069
H      -1.666479   -0.448375   -1.038969
H       0.810109   -1.672580   -4.029296
H       3.147320   -1.198018   -3.025585
