17

C      -0.149597    1.550094    0.020009
C       0.018001    0.021723    0.011707
C       0.779610   -0.464774   -1.209838
C       1.897509   -1.181734   -1.072891
C       2.307511   -1.529639    0.344637
O       1.110873   -1.881294    1.102955
C       0.782006   -0.470377    1.258573
C       2.297479   -0.200301    1.128462
O       3.086641    0.586519    1.548226
H       0.821221    2.054601    0.043879
H      -0.683734    1.886310   -0.873817
H      -0.723129    1.874680    0.894408
H      -0.982076   -0.435344    0.019496
H       0.389568   -0.199295   -2.188850
H       2.501245   -1.508322   -1.912156
H       3.114923   -2.254683    0.448506
H       0.277406   -0.250415    2.203049
