14

C      -0.036188    1.546545    0.027669
C      -0.041104    0.044580    0.021953
C      -1.163447   -0.723198   -0.105831
O      -2.373332   -0.161240   -0.238800
N      -1.170377   -2.100129   -0.111342
C      -0.026709   -2.668265    0.014221
O       1.143201   -2.064703    0.146742
C       1.222947   -0.626646    0.160583
O       2.316233   -0.153270    0.284113
H       0.586916    1.934428   -0.784937
H      -1.046879    1.940003   -0.083578
H       0.392505    1.928418    0.960104
H      -3.009038   -0.886208   -0.312172
H       0.060055   -3.751175    0.020168
