20

C       0.028856    1.513506    0.069047
C      -0.026463    0.015801    0.060479
C      -1.305019   -0.835463   -0.041250
C      -0.521915   -2.022051    0.601775
C       0.624762   -1.018934    0.927714
N       1.158509   -0.728865   -0.404278
C       0.907906   -1.878930   -1.301004
C       0.072938   -2.910229   -0.493002
O       0.852603   -3.977623    0.023143
H       1.036672    1.858199    0.314036
H      -0.235644    1.918879   -0.915006
H      -0.673247    1.928437    0.800439
H      -2.078647   -0.452820    0.629325
H      -1.745596   -0.993300   -1.032953
H      -1.011086   -2.566868    1.407712
H       1.248749   -0.937787    1.810845
H       0.402757   -1.545886   -2.212726
H       1.864741   -2.322509   -1.592377
H      -0.700171   -3.387028   -1.103122
H       1.549104   -3.596539    0.570108
