13

C      -0.019623    1.549979    0.000320
C       0.001997    0.051062    0.027942
C       0.031702   -0.730188   -1.136877
F       0.040263   -0.084832   -2.297484
N       0.052386   -2.039631   -1.212199
N       0.045293   -2.745902   -0.078183
C       0.017621   -2.109367    1.083682
C      -0.004454   -0.715060    1.173572
F      -0.032018   -0.137675    2.370744
H       0.870900    1.939777   -0.502547
H      -0.887389    1.913211   -0.558685
H      -0.057305    1.955334    1.011741
H       0.012593   -2.720099    1.980187
