15

O       0.115735    1.360981    0.109427
C       0.009989   -0.037016    0.058955
C      -1.421651   -0.475353    0.070138
N      -2.414591    0.324872    0.055615
C      -3.601013   -0.498775    0.027498
C      -3.751610   -1.394033   -1.187151
C      -3.087885   -1.928612    0.047354
O      -1.670254   -1.810122    0.104727
H      -0.789566    1.702369    0.079373
H       0.492792   -0.439486   -0.845914
H       0.523312   -0.498732    0.916061
H      -4.469743   -0.132667    0.560036
H      -4.745565   -1.776422   -1.391744
H      -3.146530   -1.180032   -2.061824
H      -3.464749   -2.767547    0.616682
