23

C       0.107764    1.557806    0.143404
C      -0.022831    0.038713    0.008236
C       0.725883   -0.517974   -1.205811
C       0.544813   -2.039354   -1.375655
O      -0.833873   -2.398682   -1.495549
C       1.335407   -2.551163   -2.498534
C       1.956291   -2.937524   -3.457006
C       2.720146   -3.445503   -4.592101
C       3.271765   -4.864844   -4.364866
H       1.155683    1.861092    0.247725
H      -0.296309    2.070364   -0.736932
H      -0.434012    1.926950    1.019845
H       0.357243   -0.445431    0.917948
H      -1.077568   -0.244710   -0.069292
H       0.380258   -0.024246   -2.124435
H       1.798884   -0.303385   -1.125901
H       0.872569   -2.531657   -0.450466
H      -1.106881   -2.174489   -2.392113
H       2.084898   -3.437952   -5.487313
H       3.548843   -2.758942   -4.808441
H       3.937760   -4.888114   -3.498141
H       2.458613   -5.572710   -4.183566
H       3.833945   -5.200490   -5.241425
