15

C       0.060905    1.669026    0.026792
C       0.093177    0.150134   -0.030639
C       0.774136   -0.573860   -1.253863
C       1.520808   -1.541601   -0.272486
C       1.089837   -0.605135    0.868270
O       1.454353   -0.449020    1.994901
C      -0.106178   -1.173375   -2.239521
N      -0.820497   -1.655704   -3.010432
H       1.053120    2.093360   -0.156888
H      -0.630881    2.077831   -0.715392
H      -0.264574    1.998445    1.017510
H      -0.908018   -0.268450    0.129450
H       1.477351    0.096347   -1.755525
H       1.042544   -2.522497   -0.198956
H       2.593165   -1.678018   -0.423020
