23

C       0.554566   -0.913153   -1.200314
C      -0.222978   -0.521727    0.057542
C       0.528742   -0.689529    1.376502
C      -0.206593    0.011067    2.526923
O      -0.167081    1.413049    2.358396
C       1.103842   -2.072745    1.754805
C       2.456350   -1.337798    1.871540
C       3.634102   -1.838071    1.061945
O       1.879623   -0.121164    1.321769
H       0.806470   -1.979182   -1.217932
H      -0.039113   -0.705866   -2.095677
H       1.485795   -0.345533   -1.268191
H      -0.527673    0.528770   -0.009012
H      -1.148424   -1.108688    0.131050
H      -1.261172   -0.286384    2.551749
H       0.248040   -0.287281    3.485954
H       0.761958    1.617027    2.184071
H       0.707120   -2.522446    2.667403
H       1.076128   -2.808886    0.949112
H       2.762068   -1.170774    2.913591
H       3.339964   -2.039796    0.027899
H       4.435739   -1.092696    1.052994
H       4.031074   -2.760742    1.499530
