17

N      -0.206263    1.571322    0.022785
C      -0.083803    0.118095   -0.034803
C      -1.421275   -0.490177    0.099574
N      -2.455469   -0.992640    0.206777
C       0.596694   -0.445358   -1.311231
O      -0.092991    0.122311   -2.402232
C       2.103335   -0.099658   -1.350873
C       2.695504   -0.519493   -2.613992
C       3.111816   -0.874553   -3.685034
H       0.699022    1.993486    0.197182
H      -0.535563    1.906056   -0.878301
H       0.499776   -0.212121    0.833192
H       0.494984   -1.540990   -1.305068
H       0.363762   -0.140892   -3.210457
H       2.228044    0.983392   -1.230127
H       2.615245   -0.585387   -0.510780
H       3.515734   -1.186470   -4.616808
