20

C       0.116188    1.539013   -0.136396
C       0.036941    0.016242    0.074343
C      -1.367107   -0.510915    0.081180
C      -2.106481   -0.993146    1.143768
N      -3.334217   -1.324006    0.681431
C      -4.459305   -1.845374    1.417331
N      -3.453206   -1.093034   -0.651304
C      -2.272111   -0.598818   -1.011183
N      -2.041650   -0.174389   -2.323961
H       1.156589    1.878701   -0.172626
H      -0.373089    1.826319   -1.071744
H      -0.389064    2.068542    0.677236
H       0.621682   -0.481746   -0.712743
H       0.528365   -0.250020    1.017238
H      -1.844013   -1.120942    2.183386
H      -5.292700   -1.135260    1.409324
H      -4.800360   -2.786443    0.975624
H      -4.153344   -2.025063    2.449723
H      -2.754827   -0.525638   -2.951252
H      -1.123436   -0.429081   -2.665372
