19

C      -0.007209    1.547176    0.055518
C       0.003423    0.040398   -0.052501
C       0.753216   -0.638093   -1.233371
C       1.190202   -1.609355   -0.116539
O       0.958275   -0.581573    0.869213
C       0.114116   -2.687213    0.021842
O      -0.552532   -2.755384    1.275245
C      -1.241037   -2.138924    0.178595
C      -1.367119   -0.618402    0.194255
H       1.001997    1.947113   -0.074182
H      -0.658529    1.984167   -0.709018
H      -0.377099    1.859233    1.037832
H       0.172237   -1.033902   -2.070202
H       1.574915   -0.017429   -1.594740
H       2.212249   -1.994739   -0.086782
H       0.285003   -3.637588   -0.483064
H      -2.104467   -2.703135   -0.170365
H      -1.769132   -0.283362    1.157349
H      -2.075411   -0.308945   -0.584076
