17

O      -0.004632   -0.070764   -0.114536
C      -0.051425    1.132578   -0.005595
C      -1.347137    1.911521    0.151682
C      -1.159161    3.172251    1.018023
C       0.241916    3.758468    0.872214
C       1.084482    3.497319   -0.412217
O       2.310742    3.763272    0.366952
C       1.480445    2.890045    1.214242
C       1.191583    1.989958   -0.031903
H      -1.636936    2.212590   -0.865431
H      -2.130657    1.247096    0.521450
H      -1.906250    3.926142    0.750802
H      -1.331558    2.932881    2.074283
H       0.336114    4.781468    1.240905
H       1.011528    3.943860   -1.404525
H       1.879788    2.586410    2.182451
H       2.064388    1.464080   -0.417894
