20

C       0.010564    1.567799    0.768250
O      -0.072955    0.240733    1.302209
C       0.715950   -0.665546    0.698789
O       1.452514   -0.404731   -0.222869
C       0.597167   -2.045037    1.264889
N      -0.006749   -2.260290    2.592070
C      -0.686887   -2.819204    1.421930
C      -2.030650   -2.201749    1.094046
C      -0.606885   -4.315269    1.183078
H      -0.292000    1.582978   -0.282075
H      -0.667547    2.171627    1.371153
H       1.032232    1.948227    0.842637
H       1.464334   -2.635958    0.982831
H       0.517357   -2.978819    3.086758
H      -2.042749   -1.140031    1.336557
H      -2.266238   -2.328856    0.031719
H      -2.817965   -2.697727    1.672737
H      -1.336317   -4.839984    1.811111
H      -0.832505   -4.560731    0.139951
H       0.388048   -4.709091    1.414376
