19

O      -0.164438    1.576367   -0.089003
C       0.052018    0.186799    0.051863
C      -1.265602   -0.572857    0.030331
O      -1.866476   -0.379521   -1.254843
C      -2.857166   -1.367706   -1.333418
O      -2.357205   -2.516076   -0.667199
C      -1.243292   -2.109122    0.151207
C       0.000105   -2.819096   -0.384832
O      -0.202688   -4.216357   -0.408293
H      -0.670559    1.695309   -0.900743
H       0.716837   -0.198949   -0.734112
H       0.546808    0.040522    1.017511
H      -1.924645   -0.150191    0.804938
H      -3.786843   -1.034962   -0.840102
H      -3.049719   -1.597165   -2.386170
H      -1.434471   -2.438742    1.178494
H       0.239047   -2.428936   -1.386446
H       0.859809   -2.632336    0.268133
H      -1.042340   -4.351012   -0.864884
