21

C       0.364368    0.870799    1.266875
C       0.147060    0.005595    0.034803
O       0.953541   -0.019930   -0.870149
C      -1.137860   -0.791878    0.021679
C      -1.528817   -1.674564   -1.195107
C      -0.434096   -2.695685   -0.767247
C      -1.157820   -2.288733    0.553770
C      -0.866796   -2.758824    1.954095
C      -2.494289   -2.430621   -0.238241
H       1.357976    1.319465    1.235612
H      -0.390991    1.664722    1.303843
H       0.246285    0.280938    2.182874
H      -1.949755   -0.187314    0.445431
H      -1.739224   -1.318978   -2.202851
H      -0.593633   -3.729235   -1.088337
H       0.602563   -2.389211   -0.893556
H       0.162636   -2.526951    2.248897
H      -1.541805   -2.291232    2.679616
H      -0.995681   -3.844249    2.029616
H      -3.356452   -1.875700    0.144393
H      -2.769596   -3.447458   -0.532550
