20

C      -0.108592    1.240578    0.086273
C      -0.294407   -0.231526   -0.297670
C       0.683093   -0.687809   -1.360409
C       2.076782   -1.158638   -0.975894
C       1.071873   -2.131501   -1.504136
O       0.590665   -3.071232   -0.561671
C      -0.526406   -3.750952   -0.944915
N      -0.922795   -4.581493    0.066489
O      -1.086108   -3.619774   -2.006044
H       0.897212    1.421667    0.479745
H      -0.247363    1.896666   -0.780116
H      -0.830164    1.543442    0.851486
H      -0.184930   -0.863482    0.590392
H      -1.316832   -0.391832   -0.662585
H       0.607745   -0.146477   -2.300809
H       2.926831   -0.900889   -1.597581
H       2.295042   -1.221512    0.085412
H       1.181987   -2.549916   -2.497511
H      -0.269385   -4.790480    0.802195
H      -1.592635   -5.288972   -0.182074
