17

C       0.106420    1.540069    0.063754
C      -0.019115    0.044685   -0.028948
C      -0.020219   -0.621546   -1.181752
C      -0.144420   -2.110919   -1.292829
C      -0.274880   -2.863618    0.023136
O      -0.380976   -4.076005    0.060111
N      -0.267842   -2.108943    1.159504
C      -0.145717   -0.669587    1.288659
H       0.986334    1.831885    0.651498
H       0.195754    1.992421   -0.926664
H      -0.764259    1.984252    0.563223
H       0.073878   -0.070103   -2.114965
H      -1.012229   -2.390354   -1.904748
H       0.717398   -2.541154   -1.819796
H      -0.356447   -2.653007    2.005662
H       0.727813   -0.424246    1.914520
H      -1.017537   -0.269245    1.831246
