21

C      -0.268399    1.512340    0.166762
C       0.017760    0.023925   -0.007229
C      -1.250115   -0.817152    0.158593
C       0.875016   -0.371872   -1.257064
C       1.905107   -1.016794   -0.291590
N       1.149010   -0.452312    0.826209
C       1.135461   -0.750621    2.159550
N       2.229251   -1.495178    2.590442
O       0.231269   -0.415221    2.909127
H       0.643947    2.102133    0.037093
H      -1.007206    1.850053   -0.568113
H      -0.661238    1.701243    1.169345
H      -2.002500   -0.511474   -0.576414
H      -1.038944   -1.880803    0.006686
H      -1.659365   -0.690195    1.162733
H       0.391099   -1.056370   -1.954660
H       1.267826    0.485566   -1.806081
H       1.922319   -2.114005   -0.305422
H       2.935867   -0.650977   -0.378084
H       3.098071   -1.390857    2.087946
H       2.328774   -1.484618    3.594401
