21

C       0.022424    1.478238    0.073719
C       0.010522   -0.018030   -0.014875
C      -0.942481   -0.894226    0.819869
C       0.557764   -1.042942    0.951944
C       0.440910   -2.069437   -0.229632
C      -1.096242   -2.195477    0.020001
C      -1.818386   -2.055357   -1.326716
C      -0.860340   -1.161423   -2.179048
C       0.327008   -0.889567   -1.243915
H       0.989609    1.890337   -0.237383
H      -0.749236    1.925647   -0.564899
H      -0.165614    1.814670    1.099427
H      -1.638715   -0.446750    1.519416
H       1.216186   -0.951832    1.803693
H       1.072375   -2.935971   -0.415118
H      -1.400694   -3.047430    0.631747
H      -1.963663   -3.033904   -1.797400
H      -2.811420   -1.609764   -1.207566
H      -0.536852   -1.684396   -3.085497
H      -1.337610   -0.231640   -2.505945
H       1.259992   -0.606229   -1.737664
