17

C      -0.215683    1.455262   -0.028200
N      -0.053707    0.018995    0.021630
N       0.177723   -0.706958   -1.063100
C       0.224837   -1.958511   -0.605790
C       0.015525   -1.932722    0.786045
N      -0.158043   -0.663125    1.163921
N      -0.086002   -3.013507    1.663226
C       1.139842   -3.682672    2.112651
C       0.346048   -2.832901    3.043266
H       0.492396    1.935764    0.651522
H      -0.022361    1.769071   -1.052937
H      -1.232713    1.734180    0.261326
H       0.399371   -2.793886   -1.263728
H       1.081678   -4.765407    2.166707
H       2.086962   -3.284527    1.756959
H       0.753298   -1.863052    3.312914
H      -0.294327   -3.292194    3.789978
