13

C      -0.015738    1.424137   -0.027677
N       0.005946   -0.018958    0.016014
N       0.051178   -0.768408   -1.131091
C       0.031299   -1.997456   -0.655709
N      -0.004365   -2.109091    0.702430
C      -0.015273   -0.843240    1.087076
N      -0.120192   -0.389815    2.391897
H       0.993164    1.849980    0.025221
H      -0.476578    1.729994   -0.967189
H      -0.611211    1.801643    0.807988
H       0.046765   -2.855375   -1.311741
H      -0.040725   -1.161429    3.041031
H       0.522028    0.352864    2.635212
