15

N      -0.139096    1.314187    0.007845
C      -0.060570    0.054714    0.000581
C      -1.255578   -0.873730    0.003571
C      -0.693933   -2.284122   -0.007955
O      -1.307148   -3.315635   -0.009744
C       0.837052   -2.191999   -0.017259
N       1.115688   -0.758383   -0.011675
C       2.402839   -0.275728   -0.018240
O       2.716954    0.893334   -0.014265
H       0.789447    1.737376    0.003874
H      -1.883335   -0.715445    0.886065
H      -1.895212   -0.705794   -0.868546
H       1.241673   -2.701897    0.864602
H       1.230501   -2.692851   -0.909281
H       3.147864   -1.094626   -0.027906
