14

C       0.098519    1.449425    0.023473
C      -0.090000   -0.021370    0.004249
C      -1.167459   -0.828352   -0.198632
C      -0.681163   -2.182428   -0.086106
C       0.649363   -2.037156    0.174799
O       1.318556   -3.163843    0.320725
N       0.342122   -4.200652    0.140532
C      -0.806075   -3.596419   -0.093520
O       1.074714   -0.778685    0.243287
H       0.814941    1.773513   -0.739843
H      -0.856799    1.941635   -0.171174
H       0.472692    1.794767    0.993835
H      -2.168795   -0.482450   -0.400345
H      -1.671421   -4.223786   -0.256721
