19

O      -0.036630    0.237564   -0.794814
C       0.051129    1.288401   -0.217825
C      -1.008386    1.955403    0.654838
C      -0.806159    3.462382    0.396160
C       0.679820    3.659817   -0.061053
C       1.608619    4.256311    1.012141
C       1.990508    3.022174    1.828795
O       2.076048    1.955112    0.886543
C       1.258933    2.241699   -0.259928
H      -2.006652    1.580193    0.423762
H      -0.791683    1.698344    1.699678
H      -1.479457    3.790988   -0.400708
H      -1.037661    4.070235    1.275009
H       0.715798    4.244564   -0.981777
H       2.499293    4.686332    0.543240
H       1.127468    5.035737    1.608986
H       2.959672    3.103558    2.329679
H       1.231041    2.802563    2.595863
H       1.857704    2.091190   -1.162254
