14

C      -0.013496    1.452771    0.052763
N      -0.036904    0.009725    0.055769
C      -1.179745   -0.821346    0.047124
C      -0.720278   -2.083011    0.049473
N      -1.307254   -3.332923    0.145171
O       0.650792   -2.082634    0.044890
C       1.092204   -0.758337    0.041136
O       2.253340   -0.441791    0.023848
H       1.033067    1.760727    0.045624
H      -0.512825    1.854980   -0.836066
H      -0.501936    1.858341    0.945875
H      -2.179965   -0.427466    0.048654
H      -2.293465   -3.321774   -0.077161
H      -0.823373   -4.028947   -0.409941
