10

F      -0.020273    0.025608    0.004415
C      -0.052477    1.348799    0.011311
C      -1.209101    2.043584    0.029594
N      -1.237519    3.424657    0.036775
C      -0.101027    4.010628    0.025074
O       1.105681    3.421161    0.006625
C       1.239759    2.017382   -0.002042
O       2.330395    1.533387   -0.018426
H      -2.163900    1.528491    0.039333
H      -0.015514    5.092353    0.029349
