17

C      -0.051517    1.470386    0.139171
N       1.233831    0.786660   -0.111221
C       1.633527    0.208836    1.222487
C       0.368951   -0.676766    1.285344
O       0.683688   -2.058290    1.101643
C       0.314306   -2.661054   -0.061762
N      -0.280160   -2.207176   -1.078233
C      -0.679443   -0.803707   -1.106226
C      -0.075665    0.006072   -0.001706
H      -0.227275    1.936814    1.107752
H      -0.391238    2.056922   -0.709937
H       2.541746   -0.388093    1.128502
H       1.758566    0.957351    2.011444
H      -0.283834   -0.609205    2.161353
H       0.618933   -3.705242   -0.023324
H      -0.402762   -0.379223   -2.078246
H      -1.776666   -0.763625   -1.051174
