18

C       0.020173    1.497098   -0.143824
C      -0.009647   -0.013492   -0.024315
C       1.300654   -0.776958   -0.124533
C       0.611902   -0.658397    1.203575
C      -1.214300   -0.665461   -0.590848
N      -1.406111   -1.980647   -0.573315
N      -2.608158   -2.106944   -1.185117
C      -3.082162   -0.898744   -1.538314
N      -2.229741    0.040651   -1.179992
H       0.939545    1.892238    0.298598
H      -0.022209    1.812981   -1.190407
H      -0.832439    1.952308    0.368739
H       1.273857   -1.738711   -0.623120
H       2.199391   -0.193728   -0.295967
H       1.035117    0.006621    1.949164
H       0.121581   -1.540403    1.598456
H      -3.012468   -3.019704   -1.313514
H      -4.026924   -0.754818   -2.040822
