22

C      -0.147782    1.534906   -0.028053
C      -0.051714    0.018587   -0.041569
O      -1.356028   -0.517066    0.047636
C      -1.375896   -1.927933    0.051424
C      -2.826854   -2.375522    0.175802
C      -2.938731   -3.891342    0.300672
O      -2.073501   -4.567891    0.831333
N      -4.087862   -4.422113   -0.210237
C      -4.399459   -5.835585   -0.132196
H       0.848722    1.981393   -0.096528
H      -0.746060    1.889225   -0.872434
H      -0.620968    1.880999    0.895332
H       0.440200   -0.329597   -0.966096
H       0.564178   -0.338488    0.801163
H      -0.929477   -2.325495   -0.875528
H      -0.793434   -2.336292    0.889001
H      -3.254593   -1.923464    1.079348
H      -3.409589   -1.999220   -0.672042
H      -4.755745   -3.801037   -0.635158
H      -4.536616   -6.269540   -1.128904
H      -3.556290   -6.324809    0.356672
H      -5.307077   -6.015093    0.455383
