17

O       0.156166    1.383682    0.148528
C       0.079263   -0.000511    0.059471
C       1.066556   -0.630756    1.027445
C       1.016239   -2.131543    0.963548
C       0.169946   -2.725714    0.122994
C      -0.712398   -1.876440   -0.739392
C      -1.354408   -0.618058   -0.095228
O      -1.435335    0.016735   -1.434549
C      -0.089051   -0.605836   -1.377865
H      -0.494982    1.709489   -0.490764
H       2.074216   -0.258273    0.797928
H       0.847311   -0.270076    2.041664
H       1.677577   -2.699458    1.610610
H       0.100708   -3.805789    0.044407
H      -1.386520   -2.408793   -1.409500
H      -2.228359   -0.540991    0.553698
H       0.547152   -0.514189   -2.259729
