11

N       0.005849    1.324017    0.045238
N       1.288211    1.774984    0.025602
N       2.092385    0.774870   -0.007513
N       1.322119   -0.347444   -0.009357
C       1.412285   -1.727395   -0.033420
C       0.093561   -2.129373   -0.011433
N      -0.807643   -1.074615    0.024961
C      -0.009642   -0.036700    0.024255
H      -0.753526    1.981864    0.072475
H       2.348387   -2.254369   -0.062314
H      -0.264832   -3.148186   -0.019883
