14

O       0.522912   -0.292944    0.061348
C       0.235369    0.813866   -0.308059
C       1.026248    2.058319    0.068820
C       1.201321    3.010692   -1.092308
C       2.518617    3.606884   -1.416355
O       1.992721    2.555830   -2.205596
C       0.002332    3.800513   -1.527927
O      -1.018379    3.878557   -0.893470
H      -0.657158    0.999942   -0.944035
H       0.454643    2.581171    0.847185
H       1.985007    1.745709    0.487155
H       2.575255    4.579835   -1.903460
H       3.361059    3.350894   -0.776182
H       0.142463    4.310576   -2.505564
