16

C      -0.024074    1.469417    0.057472
C      -0.001314   -0.015722   -0.049178
C      -0.043526   -0.807753   -1.121798
C       0.005985   -2.212625   -0.710054
N      -0.019397   -3.232909   -1.456949
O       0.077026   -2.249129    0.667929
C       0.078580   -0.908401    1.182996
C       1.262731   -0.661970    2.002715
C       2.229582   -0.429366    2.676279
H       0.865114    1.831604    0.585805
H      -0.061504    1.937740   -0.928282
H      -0.893873    1.809276    0.633458
H      -0.107235   -0.514205   -2.159507
H       0.028715   -4.087491   -0.900348
H      -0.820441   -0.787472    1.806236
H       3.087132   -0.237798    3.273526
