13

C       0.078630    1.312595    0.008777
N      -0.020614   -0.126931    0.001511
N       0.032130   -0.837642   -1.130102
C       0.100451   -2.094690   -0.714310
O       0.138841   -3.164031   -1.531839
C       0.107876   -2.102315    0.694687
O       0.154816   -3.180440    1.500147
N       0.044004   -0.849845    1.124754
H       1.123544    1.644515    0.004183
H      -0.423783    1.696387   -0.879875
H      -0.412800    1.686471    0.907727
H       0.122982   -2.835092   -2.438817
H       0.148530   -2.861335    2.410749
