16

C      -0.008872    1.527090    0.004950
C      -0.026420    0.023110   -0.013542
C      -1.183032   -0.692098   -0.018467
N      -2.467772   -0.165818   -0.089174
N      -1.123493   -2.072856   -0.008901
C       0.093328   -2.700300   -0.016005
N       1.227941   -2.109364   -0.011860
C       1.260331   -0.688656   -0.023830
O       2.329823   -0.105041   -0.027928
H       1.009059    1.852488    0.225492
H      -0.293606    1.961620   -0.961792
H      -0.680467    1.943376    0.767322
H      -2.490075    0.837962    0.019897
H      -3.141887   -0.608968    0.522877
H      -1.966117   -2.608018   -0.149208
H       0.037622   -3.788434   -0.020923
