27

C      -0.040760    1.495618   -0.323481
C       0.054292    0.011809    0.057965
C       0.775244   -0.151835    1.403878
C      -1.342791   -0.634585    0.052782
C      -1.360809   -2.161250    0.220886
C      -2.761655   -2.732146    0.118248
C      -3.372274   -3.070765   -1.223442
C      -3.054287   -4.172645   -0.239388
C      -1.972793   -5.192481   -0.524452
H       0.949788    1.960971   -0.364694
H      -0.515286    1.627150   -1.301760
H      -0.636594    2.050785    0.411221
H       0.657529   -0.493663   -0.711057
H       0.925412   -1.202988    1.666544
H       1.760567    0.325879    1.381625
H       0.199893    0.315435    2.212757
H      -1.951766   -0.174390    0.844877
H      -1.842739   -0.386659   -0.892667
H      -0.713794   -2.610573   -0.542486
H      -0.927403   -2.437545    1.190500
H      -3.450696   -2.298408    0.840716
H      -4.408613   -2.815016   -1.416636
H      -2.728130   -2.986646   -2.094684
H      -3.916637   -4.594356    0.272008
H      -1.136470   -4.760691   -1.081530
H      -1.569110   -5.619041    0.401062
H      -2.369719   -6.019399   -1.124027
