14

C      -0.002995    1.501508    0.100833
C      -0.003405    0.017515   -0.037802
C      -0.060097   -0.810827   -1.147075
N      -0.034990   -2.121609   -0.789997
C       0.036888   -2.128951    0.531492
N       0.057890   -0.841664    1.022635
C       0.091158   -3.276111    1.435045
O       0.078390   -4.437002    1.105259
H       0.904143    1.866599    0.596556
H      -0.051192    1.964804   -0.886850
H      -0.862799    1.859421    0.679329
H      -0.117542   -0.505417   -2.182013
H       0.109585   -0.579751    1.994564
H       0.148518   -2.979251    2.510928
