18

C      -0.160066    1.343814   -0.081846
O      -0.163020   -0.056964   -0.214472
C       0.862404   -0.525383   -1.066979
C       0.778184   -2.027037   -1.112643
C      -0.176323   -2.789109   -1.987583
O      -0.688172   -2.114213   -3.130578
C       0.394284   -1.858515   -3.910550
N       1.539422   -2.257756   -3.527420
C       1.324067   -2.887398   -2.242199
H       0.784939    1.713657    0.347942
H      -0.314150    1.847646   -1.049545
H      -0.980388    1.610580    0.588848
H       0.762189   -0.084153   -2.068966
H       1.851033   -0.221459   -0.682521
H       0.898436   -2.491416   -0.137309
H      -0.848900   -3.550058   -1.614549
H       0.177600   -1.318584   -4.824231
H       1.950552   -3.741035   -2.014001
