22

C      -0.146406    1.639571    1.542523
C      -0.282097    0.147019    1.795476
O       0.759552   -0.513891    1.091405
C       0.878012   -1.888426    1.353525
C      -0.216147   -2.759936    0.761798
C      -0.330871   -2.614321   -0.759432
C       2.295583   -2.375816    1.348985
C       1.533715   -2.274870    2.657387
H      -0.215924    1.855189    0.472420
H      -0.939772    2.188244    2.059140
H       0.820542    2.003885    1.901198
H      -0.209218   -0.074470    2.871114
H      -1.267693   -0.206606    1.456423
H      -0.008181   -3.802858    1.027294
H      -1.177535   -2.516809    1.232261
H      -0.513771   -1.572114   -1.035176
H       0.594252   -2.927553   -1.254427
H      -1.149488   -3.223431   -1.154511
H       2.501934   -3.359709    0.941415
H       3.063067   -1.633382    1.164528
H       1.815187   -1.471217    3.328697
H       1.220504   -3.188829    3.151003
