15

N      -0.027972   -1.143447   -0.005142
C       0.008533    0.010205    0.001720
C      -0.000296    1.474488    0.011975
O       1.327843    1.941080    0.000471
C       1.447792    3.302221    0.006605
C       0.457950    4.264298    0.024588
N       1.101593    5.484980    0.023528
C       2.455738    5.303471    0.005333
C       2.710394    3.951926   -0.005553
H      -0.555393    1.835757   -0.867664
H      -0.535759    1.823395    0.908628
H      -0.615847    4.198607    0.037802
H       0.636266    6.374376    0.034425
H       3.130884    6.143621    0.001560
H       3.673698    3.469169   -0.020463
