23

C      -0.104604    1.534099   -0.053148
C      -0.035966    0.032369    0.172651
O      -1.320127   -0.509682   -0.067583
C      -1.399390   -1.923174   -0.027975
C      -1.344264   -2.495756    1.397161
C      -1.639482   -3.999605    1.373214
O      -2.884711   -4.285409    0.763788
C      -2.929989   -3.840273   -0.580551
C      -2.717193   -2.327526   -0.688580
H       0.873735    1.992241    0.120664
H      -0.416418    1.753595   -1.078176
H      -0.827683    1.990696    0.628723
H       0.701109   -0.426929   -0.508023
H       0.299110   -0.179784    1.200085
H      -0.562540   -2.350615   -0.610752
H      -0.365339   -2.325005    1.858306
H      -2.096729   -1.984192    2.008472
H      -0.828817   -4.531778    0.843780
H      -1.693503   -4.403887    2.388033
H      -2.167849   -4.371313   -1.178358
H      -3.912640   -4.125745   -0.966352
H      -3.536674   -1.805135   -0.182111
H      -2.723111   -2.014983   -1.738151
