15

C      -0.055526    1.566632    0.117221
C      -0.014324    0.039972    0.021686
O       0.702288   -0.423841    1.148351
C      -1.387312   -0.513742    0.017296
N      -2.441919   -0.983991    0.048742
C       0.693503   -0.450838   -1.291700
O       0.016370   -0.067648   -2.462487
C       2.101275   -0.012223   -1.295113
N       3.190468    0.369196   -1.344955
H       0.966013    1.954369    0.129069
H      -0.606522    1.995144   -0.723031
H      -0.553881    1.859308    1.042712
H       0.608412   -1.381384    1.219004
H       0.677835   -1.546819   -1.281619
H       0.206162    0.858777   -2.649551
