19

C       0.015777    1.622316   -0.014102
C      -0.014994    0.092643    0.041791
C       0.520708   -0.497505   -1.284962
O       1.006245   -1.830270   -1.225016
C       0.265008   -2.767229   -0.494647
O       0.723297   -2.903514    0.823682
C       0.374846   -1.865354    1.722962
C       0.760251   -0.451253    1.247541
O       1.585876    0.201574    1.838702
H       1.047874    1.980751   -0.006554
H      -0.478013    1.987071   -0.920310
H      -0.493346    2.057955    0.849426
H      -1.052360   -0.244149    0.164546
H      -0.263527   -0.411360   -2.051880
H       1.377062    0.097397   -1.616575
H      -0.813730   -2.532916   -0.517901
H       0.442212   -3.739496   -0.960223
H      -0.710813   -1.878644    1.923564
H       0.911048   -2.067179    2.651433
