15

C      -0.022668    1.432136    0.021662
C       1.432961    1.911549    0.009622
C       2.212319    1.255054    1.126509
O       1.597353    1.280855    2.418127
C       1.685204    0.022580    1.732061
C       0.376108   -0.561068    1.227420
O      -0.082604    0.014831    0.017976
H      -0.545518    1.839864    0.899417
H      -0.547444    1.764077   -0.877951
H       1.900783    1.646156   -0.946028
H       1.476422    3.003146    0.107070
H       3.288615    1.428942    1.137639
H       2.373705   -0.683880    2.195422
H       0.504204   -1.628639    1.021994
H      -0.382641   -0.455818    2.020926
