18

O      -0.034838    1.408858   -0.294469
C       0.053285    0.010872   -0.075910
C      -1.359484   -0.563269    0.047239
O      -2.132851   -0.164927   -1.078410
C      -1.484712   -2.076156    0.221992
C      -2.755512   -2.255925    1.083162
N      -2.800774   -1.009483    1.837970
C      -2.055918   -0.006433    1.313685
O      -1.963543    1.137026    1.735730
H      -0.523537    1.757351    0.471667
H       0.556408   -0.421266   -0.947597
H       0.644286   -0.230780    0.820635
H      -1.850511    0.744199   -1.260543
H      -1.552611   -2.582370   -0.741642
H      -0.614617   -2.461069    0.763449
H      -3.648929   -2.375194    0.458364
H      -2.688613   -3.117881    1.753242
H      -3.452460   -0.834914    2.587374
