14

C      -0.028323    1.509776    0.004050
C       0.003383    0.008367   -0.025362
C      -0.131578   -0.706590   -1.213839
C      -0.082885   -2.088290   -1.088014
F      -0.203163   -2.842441   -2.168833
N       0.077365   -2.725685    0.048548
C       0.195847   -1.931156    1.122749
O       0.360838   -2.543134    2.301119
N       0.168728   -0.607611    1.155006
H       0.903384    1.893009    0.431472
H      -0.165580    1.934435   -0.992356
H      -0.839610    1.851840    0.654008
H      -0.265635   -0.231822   -2.175420
H       0.360238   -3.492954    2.120921
