19

C      -0.334994    1.496844   -0.050391
C       0.130024    0.040942    0.080435
C       0.834846   -0.484504   -1.154358
C       0.041047   -1.002640   -2.338654
C       0.911427   -1.946718   -1.517515
C       2.306656   -2.197820   -2.048617
O       2.780923   -3.266062   -2.358754
C       2.979858   -0.866481   -2.080121
C       2.171260    0.067609   -1.561447
H       0.507144    2.177652   -0.212785
H      -1.025092    1.615858   -0.891894
H      -0.849754    1.823637    0.857954
H       0.796097   -0.058532    0.946712
H      -0.735609   -0.599801    0.285694
H      -1.032306   -1.115307   -2.215616
H       0.360406   -0.736352   -3.340365
H       0.426339   -2.723019   -0.939320
H       3.971939   -0.724093   -2.487982
H       2.407237    1.122350   -1.468266
