17

C       0.008804    1.537869    0.030209
C       0.226333    0.020882    0.013362
C       0.693148   -0.479299   -1.352289
C       0.733786   -2.011162   -1.616543
O      -0.246569   -1.842035   -2.708320
C      -0.343254   -0.491602   -2.477965
O      -1.059279    0.284938   -3.023703
C       1.979656   -2.596933   -2.057816
C       3.026803   -3.073081   -2.404264
H       0.942441    2.071875   -0.176723
H      -0.721429    1.834676   -0.727460
H      -0.355244    1.866320    1.007734
H       0.972851   -0.263814    0.764536
H      -0.704045   -0.492073    0.287221
H       1.616121    0.018959   -1.661559
H       0.274319   -2.603417   -0.819699
H       3.948513   -3.500096   -2.715557
