15

O      -0.305143    0.437937    1.196312
C      -0.249736    1.443694    0.528989
C       1.021726    1.953553   -0.074792
C       2.181999    2.021739    0.883096
N       2.130132    0.992014   -0.141504
C       0.881156    2.949710   -1.183191
C       1.795716    2.967684   -2.329108
O       0.476425    2.431931   -2.454147
H      -1.154217    2.053412    0.324185
H       2.927716    2.796941    0.729560
H       1.986869    1.746259    1.915629
H       1.795573    0.122018    0.275185
H       0.377918    3.877188   -0.902780
H       1.970855    3.904663   -2.855792
H       2.597033    2.234513   -2.363033
