21

O       0.175903    1.347615    0.012332
C       0.076175   -0.065850    0.000906
C      -1.376962   -0.558800    0.016335
C      -1.444812   -2.097329    0.157585
C      -2.827409   -2.665433   -0.084231
C      -3.269908   -3.011010   -1.484442
C      -2.994685   -4.107988   -0.484340
C      -2.112927    0.093298    1.171899
O      -3.171907    0.658780    1.092305
H      -0.281478    1.687208   -0.764114
H       0.603888   -0.508334   -0.858079
H       0.595038   -0.403725    0.905906
H      -1.884113   -0.258473   -0.908989
H      -0.737465   -2.545751   -0.552170
H      -1.090065   -2.380805    1.158844
H      -3.599258   -2.259642    0.564070
H      -4.297908   -2.813585   -1.766334
H      -2.555557   -2.873612   -2.290329
H      -2.097481   -4.703325   -0.620920
H      -3.835017   -4.661465   -0.080412
H      -1.590931   -0.016939    2.152992
