15

C       2.011261   -0.798364    2.628606
C       1.138114   -1.118689    1.436492
C       0.187451   -0.107624    0.839709
C       0.159493    1.228779    1.380555
N       0.134805    2.308992    1.795387
N       1.361386   -0.592388    0.099792
C       2.469913    0.318195   -0.168699
H       2.956373   -1.347829    2.565760
H       2.234364    0.266043    2.719088
H       1.505823   -1.110888    3.547509
H       0.778255   -2.147040    1.419865
H      -0.770786   -0.433816    0.443343
H       2.265092    0.841995   -1.106554
H       2.654143    1.071214    0.607853
H       3.376797   -0.278300   -0.302789
