17

C      -0.009374    1.556462    0.055637
C       0.002344    0.036126   -0.093957
O       0.918232   -0.579955    0.796572
C      -1.417679   -0.556500    0.065252
C      -1.423048   -2.042224   -0.013890
N      -1.644601   -2.903124    0.936317
C      -1.491125   -4.096359    0.274218
N      -1.198757   -4.001121   -0.992462
O      -1.152421   -2.614549   -1.194903
H       1.005190    1.947984   -0.051743
H      -0.646749    2.027986   -0.699359
H      -0.386599    1.848001    1.043653
H       0.372221   -0.228973   -1.090585
H       0.626799   -0.407529    1.699335
H      -1.833891   -0.277701    1.038390
H      -2.072073   -0.143377   -0.710188
H      -1.602022   -5.059564    0.750747
