19

C      -0.635950    1.334294    0.176498
C       0.094678    0.025443   -0.037431
C       0.916582   -0.145239   -1.340203
C       2.098245   -0.246433   -0.388883
O       1.302436   -0.069113    0.778281
C       3.279688   -1.179648   -0.301420
C       3.961031   -1.239076   -1.660690
O       4.010533    0.213960   -1.752666
C       3.468178    0.332776   -0.434803
H       0.012704    2.184203   -0.056746
H      -1.522258    1.384976   -0.465724
H      -0.962125    1.424794    1.217277
H      -0.563791   -0.824259    0.180961
H       0.695149   -1.040756   -1.923769
H       0.929854    0.726400   -1.997407
H       3.428922   -1.842046    0.540667
H       4.974954   -1.654559   -1.631308
H       3.403812   -1.688134   -2.492221
H       3.857244    1.095964    0.230208
