18

O       0.446670    0.345603    1.019898
C       0.037764    0.038132   -0.300468
C      -1.436973   -0.428431   -0.403280
O      -1.845031   -0.359435   -1.740190
C      -1.641926   -1.847505    0.126091
O      -2.046436   -2.705917   -0.641418
C      -1.356152   -2.148793    1.552581
C      -2.455702   -2.847466    2.304075
N      -1.246792   -3.565055    1.937636
H       0.024407    1.170919    1.279434
H       0.141154    0.895364   -0.977555
H       0.706402   -0.749458   -0.661263
H      -2.042310    0.250315    0.224945
H      -2.125280   -1.261888   -1.967585
H      -0.704548   -1.455530    2.071158
H      -2.573362   -2.630315    3.361726
H      -3.372937   -3.052748    1.758972
H      -1.435826   -4.117545    1.100695
