18

O      -0.874702    0.969536    0.188339
C       0.271246    0.679913   -0.043659
C       1.424737    1.656283   -0.027417
C       1.397608    2.799490    1.003151
C       1.853407    1.655391    1.970434
N       2.609856    1.112228    0.749407
C       3.603031    2.223222    0.623757
C       3.535406    3.240901   -0.481428
C       2.765520    3.484230    0.796698
H       0.569315   -0.352176   -0.335644
H       1.633759    1.874470   -1.080257
H       0.516237    3.418965    1.166076
H       2.493654    1.916803    2.815687
H       1.064007    0.967039    2.281238
H       4.537650    2.035390    1.137278
H       4.440101    3.832773   -0.587288
H       3.047842    3.057480   -1.431573
H       3.039756    4.302002    1.452487
