19

O      -0.008242    0.002241    0.008983
C      -0.036866    1.203249   -0.001574
C      -1.287824    2.094400   -0.065784
C      -0.731052    3.529078    0.063961
C       0.639800    3.406567   -0.646889
C       1.190840    2.154622    0.039269
O       1.544906    2.453050    1.390497
C       0.443870    2.851680    2.205539
C      -0.454751    3.903206    1.534719
H      -1.770707    1.939972   -1.038245
H      -2.011564    1.804804    0.702071
H      -1.385746    4.271275   -0.398544
H       0.518278    3.239411   -1.723698
H       1.287627    4.273904   -0.497599
H       2.072099    1.701710   -0.415967
H      -0.153657    1.968362    2.480928
H       0.884550    3.240366    3.127341
H       0.033137    4.884046    1.565395
H      -1.388428    3.985596    2.103574
