16

O       0.078653    0.054175    0.464866
C       0.028918    1.186505    0.053367
O      -1.142316    1.675399   -0.394217
C      -1.313601    3.016430   -0.881043
C      -0.049624    3.738739   -1.219505
C       1.136526    3.298387   -0.816669
C       1.243574    2.071572   -0.005632
C       2.116271    2.009042    1.221064
N       2.539061    1.361636   -0.009902
H      -1.957066    2.923364   -1.763395
H      -1.891289    3.567689   -0.125181
H      -0.157432    4.648020   -1.802291
H       2.061779    3.809635   -1.060788
H       2.675415    2.897930    1.500136
H       1.759109    1.393796    2.041621
H       2.331515    0.365150    0.059082
