12

O      -0.370249    0.080646    0.007388
C      -0.110036    1.249742    0.009389
N       1.171414    1.792463   -0.001396
C       2.362230    1.091334   -0.016791
N       2.498950   -0.195980   -0.029688
O       3.913450   -0.395222   -0.041820
C       4.575862    0.795420   -0.035897
O       5.761471    0.950445   -0.042796
N       3.563661    1.753322   -0.019975
H      -0.863895    2.059847    0.020450
H       1.236152    2.798831    0.001378
H       3.742940    2.742410   -0.009652
