18

O       0.066121    1.359282    0.308151
C       0.067231    0.000656   -0.075122
C      -1.330870   -0.576065   -0.052934
C      -1.964116   -1.140344    1.201245
C      -1.736925   -2.033982    0.015245
C      -2.916149   -2.225663   -0.937093
N      -3.239599   -0.864162   -1.341687
C      -2.318985    0.078195   -0.982427
O      -2.290050    1.239015   -1.357899
H      -0.599805    1.785508   -0.253287
H       0.501271   -0.134129   -1.080092
H       0.708947   -0.538414    0.631113
H      -1.300120   -1.266621    2.049890
H      -2.977201   -0.847584    1.459405
H      -1.000121   -2.825461    0.078385
H      -2.627768   -2.839896   -1.800478
H      -3.770826   -2.710648   -0.449904
H      -3.990737   -0.635094   -1.972671
