20

C       0.033232    1.548638   -0.053577
C      -0.045691    0.032603    0.141749
C      -1.407282   -0.548771   -0.256081
C      -1.488287   -2.049475   -0.021872
O      -1.394486   -2.417033    1.388355
C      -2.682241   -3.076597    1.379139
C      -2.847206   -2.709314   -0.073045
N      -3.700614   -2.829397   -0.994721
O      -4.837797   -3.519377   -0.538505
H       1.014049    1.936058    0.238868
H      -0.135707    1.824445   -1.100577
H      -0.721762    2.065116    0.549461
H       0.742032   -0.457011   -0.446154
H       0.150055   -0.220529    1.189822
H      -2.206941   -0.057990    0.312179
H      -1.610561   -0.360257   -1.318482
H      -0.715748   -2.572453   -0.604604
H      -2.610739   -4.151570    1.588666
H      -3.400034   -2.622959    2.074028
H      -5.393957   -3.539895   -1.324855
