18

C       0.025876    1.736986    0.036693
C       0.087175    0.213939    0.068393
O       0.807869   -0.265107   -1.087655
C       2.044643   -0.750326   -0.755575
N       2.880452   -1.207977   -1.581238
C       2.247246   -0.647043    0.741642
C       0.848953   -0.373807    1.254950
C       0.471120   -0.179830    2.653887
O       0.196211   -1.415368    1.984616
H       1.024281    2.174863    0.135060
H      -0.403006    2.073588   -0.910663
H      -0.599146    2.113661    0.851844
H      -0.917264   -0.217483    0.027271
H       2.508342   -1.160827   -2.531434
H       2.671928   -1.561482    1.156345
H       2.932214    0.178705    0.962481
H       1.235677   -0.224749    3.428689
H      -0.403139    0.419544    2.906237
