12

F       0.030822    0.099739    0.004932
C       0.017056    1.427492    0.011215
N      -1.141076    1.975629    0.028815
N      -1.160684    3.326073    0.035097
C      -0.034224    4.093738    0.023952
C       1.194684    3.529035    0.005343
C       1.334613    2.085597   -0.003063
N       2.469340    1.480393   -0.020674
H      -2.083017    3.725112    0.049210
H      -0.205048    5.163535    0.031038
H       2.088486    4.138174   -0.003554
H       2.323938    0.470045   -0.023359
