15

O       0.671309    1.052911   -0.546432
C       0.196109   -0.098623    0.104656
C       0.788708   -0.236649    1.479074
C       0.120222   -0.811749    2.471892
C      -1.290768   -1.303737    2.320231
N      -1.939614   -0.758866    1.134736
C      -1.335701   -0.060173    0.143971
O      -1.946772    0.565751   -0.709224
H      -0.082236    1.358490   -1.077134
H       0.462153   -1.001098   -0.481138
H       1.805360    0.122836    1.602197
H       0.574028   -0.963757    3.446107
H      -1.305383   -2.405315    2.297207
H      -1.877929   -1.012798    3.201298
H      -2.948754   -0.725458    1.118889
