14

O       0.047761   -0.001828    0.188200
C      -0.037220    1.188119    0.140640
C      -1.297713    2.048391    0.089731
C      -0.781949    3.447141    0.340332
C      -1.566393    4.680370    0.322471
O      -1.153663    4.088478    1.560132
C       0.706148    3.382007    0.019827
O       1.062725    1.996161    0.111438
H      -1.750748    1.938991   -0.901619
H      -2.023308    1.722161    0.835847
H      -1.085811    5.626371    0.073643
H      -2.634441    4.636623    0.113462
H       0.930628    3.736149   -0.993156
H       1.295303    3.949530    0.743570
