14

O       0.265588    0.043352    0.032753
C       0.095173    1.258282    0.016787
O       0.864995    2.252483    0.006464
C      -1.376698    1.750270    0.009710
C      -2.643291    1.273201    0.025623
N      -3.495488    2.392191    0.021737
C      -2.751796    3.516638    0.005673
N      -3.240302    4.792654   -0.079067
H      -4.109775    4.968576    0.403544
H      -2.556058    5.516646    0.085193
N      -1.482536    3.135002   -0.000026
H      -3.027281    0.269577    0.048357
H      -4.501746    2.371294   -0.021438
H      -0.549204    3.578738   -0.004332
