19

O       0.045228    1.354660    0.521209
C       0.087576    0.066573   -0.069794
C      -1.306251   -0.502928   -0.220735
O      -1.873018   -0.896453    1.061229
C      -1.592525   -1.911547    0.084237
C      -2.806544   -2.584133   -0.546066
C      -3.221511   -1.960393   -1.894185
C      -3.082883   -0.458559   -1.922448
C      -2.222618    0.207091   -1.152835
H      -0.412846    1.251659    1.363734
H       0.561328    0.192659   -1.049096
H       0.700828   -0.629192    0.522167
H      -0.762202   -2.561402    0.361491
H      -2.614065   -3.653874   -0.674679
H      -3.631376   -2.490546    0.167764
H      -2.617895   -2.385504   -2.709888
H      -4.254770   -2.243495   -2.122879
H      -3.710792    0.083910   -2.625011
H      -2.133326    1.287759   -1.197821
