17

C       0.033563    1.580962    0.012407
C       0.004981    0.049041    0.092654
C       0.730093   -0.594083   -1.106129
O       2.117047   -0.704591   -0.721038
C       2.235164   -0.712691    0.627732
O       3.280819   -0.838596    1.196734
C       0.843842   -0.537936    1.244077
C       0.885059    0.160985    2.590802
O       0.013549    0.876961    3.010795
H       1.060946    1.955815   -0.059444
H      -0.505491    1.917522   -0.878514
H      -0.431837    2.027503    0.891136
H      -1.030722   -0.295465    0.140069
H       0.353293   -1.598353   -1.332506
H       0.691418    0.013241   -2.012437
H       0.500520   -1.561237    1.471216
H       1.793670   -0.073149    3.182306
