15

C      -0.028075    1.408314    0.010288
C       1.280038    1.845036    0.000056
N       2.088448    0.733016   -0.013638
C       3.455393    0.624342   -0.027322
N       4.086629   -0.503066   -0.039520
C       3.337282   -1.656168   -0.038602
C       1.972601   -1.661316   -0.025535
C       1.280523   -0.428451   -0.012202
C      -0.038629   -0.006078    0.002821
H      -0.894326    2.053035    0.022079
H       1.704497    2.835638    0.001293
H       4.001370    1.563834   -0.027513
H       3.904770   -2.580008   -0.049040
H       1.411493   -2.588262   -0.025153
H      -0.903137   -0.650839    0.007693
