20

C      -0.036643    1.562041   -0.116215
C      -0.088079    0.108603    0.364710
C      -1.397896   -0.573050    0.024539
O      -1.594811   -0.695612   -1.435707
C      -1.681484   -2.073655   -1.354830
N      -1.861718   -2.943116   -2.241474
C      -1.493363   -2.096604    0.120237
C      -0.698804   -3.088090    0.923886
C      -2.187594   -2.986816    1.110815
H       0.925173    2.022058    0.127394
H      -0.174769    1.612379   -1.199805
H      -0.824026    2.163346    0.351382
H       0.732813   -0.468661   -0.076084
H       0.043481    0.065171    1.454146
H      -2.252712   -0.036462    0.452346
H      -1.955214   -2.522555   -3.166749
H      -0.302477   -3.943039    0.387547
H      -0.056484   -2.699372    1.707040
H      -2.559821   -2.528820    2.021505
H      -2.813820   -3.772425    0.702768
