19

C       0.150811    1.183390    0.145578
O       0.018145   -0.216822   -0.110679
C       0.581850   -0.641706   -1.243147
N       1.217219    0.076468   -2.089654
C       1.625849   -0.852808   -3.153036
C       1.378487   -2.284051   -2.588396
C       2.651840   -2.919910   -2.036760
O       2.273773   -4.101438   -1.342254
N       0.415194   -1.991522   -1.519960
H       1.205332    1.465620    0.207486
H      -0.319881    1.766353   -0.650418
H      -0.350667    1.359053    1.097972
H       1.027416   -0.677804   -4.056080
H       2.675454   -0.696319   -3.428886
H       0.936121   -2.960304   -3.326019
H       3.337019   -3.141308   -2.870039
H       3.153058   -2.204098   -1.366516
H       3.046055   -4.450950   -0.888845
H       0.408188   -2.632397   -0.737240
