18

C      -0.332989    1.543458    0.091000
C       0.088420    0.082960   -0.000106
C       0.768795   -0.534814   -1.228045
C       2.204536   -0.234504   -1.387769
C       2.965804    1.020251   -1.011222
O       4.321713    0.719087   -0.741998
N       1.813740   -1.248197   -0.348293
C       1.292838   -0.481143    0.773868
O       1.703073   -0.418154    1.891713
H       0.467225    2.228658   -0.197484
H      -1.190942    1.737880   -0.560076
H      -0.628078    1.782561    1.117169
H      -0.763748   -0.556512    0.265524
H       0.237297   -1.106943   -1.980558
H       2.675529   -0.748138   -2.223974
H       2.967307    1.706085   -1.865416
H       2.499954    1.544192   -0.167455
H       4.340813    0.127055    0.018897
