19

C      -0.174930    1.356986    0.096209
N       0.090338   -0.068020    0.017067
C       0.683747   -0.586499   -0.980384
N       1.003417   -1.931290   -1.041106
C       1.340701   -2.430942   -2.371866
C       0.156715   -3.097996   -3.083118
C       1.823004   -1.150251   -3.081222
C       1.192835   -0.001909   -2.297820
O       1.110289    1.141921   -2.666742
H       0.276987    1.745880    1.017536
H       0.181056    1.945767   -0.751566
H      -1.256964    1.507299    0.202388
H       0.580596   -2.541087   -0.357366
H       2.155494   -3.159137   -2.287067
H      -0.663223   -2.386386   -3.229002
H       0.460450   -3.481307   -4.062871
H      -0.225753   -3.939457   -2.496223
H       2.911206   -1.041416   -3.008346
H       1.555717   -1.098123   -4.138398
