19

C      -0.006970    1.531601   -0.026977
C      -0.036273    0.033414    0.111379
C      -1.220764   -0.767148   -0.421519
C      -1.191806   -2.112678    0.324805
O      -0.478087   -3.169814   -0.349678
C       0.485593   -3.274038    0.719704
C      -0.108694   -2.040918    1.437074
C       0.608707   -0.726432    1.204351
O       1.216214   -0.640683   -0.092909
H       0.897220    1.941847    0.429525
H      -0.015655    1.822204   -1.083228
H      -0.881075    1.985192    0.452124
H      -2.154372   -0.230189   -0.217484
H      -1.151882   -0.926301   -1.502217
H      -2.193361   -2.447449    0.620339
H       0.379028   -4.216687    1.270726
H       1.512088   -3.167891    0.356379
H      -0.420459   -2.172210    2.474226
H       1.162172   -0.243447    2.007188
