14

O      -0.268024    0.001068    0.046983
C      -0.082268    1.181009    0.076538
N       1.151906    1.853843   -0.035951
C       1.131369    3.262541   -0.023505
C       2.204558    3.980731   -0.321855
C       3.460959    3.273480   -0.705827
O       3.488984    1.917689   -0.228305
C       2.390070    1.150805   -0.068067
O       2.486336   -0.027007    0.089138
H      -0.896695    1.923981    0.188606
H       0.176186    3.695466    0.249505
H       2.181836    5.062199   -0.302813
H       3.600818    3.256985   -1.796823
H       4.345813    3.747504   -0.271160
