21

C       0.540501   -0.854442    1.371745
C      -0.035485   -0.177651    0.121738
C       0.746464   -0.406822   -1.189539
C       2.226805    0.027047   -1.092631
C       2.367045    1.481053   -0.708046
O       2.923088    1.883235    0.281884
C       0.675320   -1.873680   -1.686960
C      -0.681962   -2.334376   -1.952188
C      -1.807110   -2.695502   -2.173833
H       0.632148   -1.938554    1.248254
H       1.525611   -0.455863    1.631695
H      -0.117158   -0.682118    2.228921
H      -1.063778   -0.518252   -0.039422
H      -0.097260    0.902485    0.303350
H       0.267421    0.210697   -1.960924
H       2.781290   -0.579471   -0.370927
H       2.697524   -0.102120   -2.077703
H       1.895451    2.193281   -1.426410
H       1.271745   -1.967031   -2.603579
H       1.149898   -2.536099   -0.951991
H      -2.796744   -3.025861   -2.371159
