15

O      -0.608544    0.905212    0.678604
C       0.094863    1.169653   -0.262498
C       1.331806    2.027111   -0.172612
C       1.231080    3.340593   -0.986672
O       0.019167    3.926671   -0.434044
C       0.790771    4.146691    0.747787
C       2.113178    4.262894   -0.012843
O       2.827089    3.435047    0.897951
C       1.541934    2.789321    1.148969
H      -0.124832    0.766608   -1.276880
H       2.221040    1.439654   -0.428467
H       1.273561    3.339041   -2.073621
H       0.360550    4.809283    1.494516
H       2.625779    5.150725   -0.377042
H       1.461970    2.280079    2.104258
