25

C       0.926155   -0.015107   -1.232518
C      -0.043046   -0.133146   -0.052346
C       0.588176   -0.696394    1.237383
C      -0.272358   -0.336046    2.453257
O      -0.226065    1.068849    2.623464
C      -1.046963    1.518595    3.671589
C       0.834758   -2.212931    1.142776
C       1.767257   -2.769639    2.221807
O      -0.447359   -2.843641    1.191251
H       1.344441   -0.983564   -1.527517
H       0.422198    0.399888   -2.111255
H       1.765358    0.646530   -0.989106
H      -0.445281    0.857800    0.178303
H      -0.893739   -0.768560   -0.325650
H       1.564190   -0.214927    1.385654
H      -1.308530   -0.672428    2.298448
H       0.095797   -0.831796    3.365445
H      -2.105456    1.262944    3.503118
H      -0.745498    1.091164    4.641892
H      -0.950535    2.606307    3.722277
H       1.302972   -2.412091    0.165759
H       1.353336   -2.633598    3.224620
H       1.927448   -3.843765    2.069871
H       2.746961   -2.282504    2.180067
H      -0.317474   -3.791781    1.093689
