12

O      -0.060724    1.349383    0.009844
C       1.259370    1.709986   -0.000794
N       2.126786    0.757699   -0.014219
C       1.339316   -0.394932   -0.012822
C      -0.007067   -0.015320    0.002061
C      -0.988781   -0.983885    0.006268
N      -0.601050   -2.263167   -0.004271
C       0.714798   -2.527279   -0.018255
N       1.733982   -1.662343   -0.023364
H       1.448026    2.773363    0.003067
H      -2.052756   -0.765917    0.017589
H       0.982550   -3.580144   -0.026420
