21

C      -0.059086    1.565540    0.051193
C      -0.007576    0.064554    0.065412
C      -1.266382   -0.819681   -0.007141
C      -0.623846   -1.806045    1.019457
C       0.623544   -0.919954    1.053901
C       1.224571   -0.749759   -0.341625
C       1.212187   -1.842390   -1.405163
C       2.461068   -0.004952   -0.336605
C       3.509918    0.585220   -0.362027
H       0.922229    2.001750    0.251263
H      -0.395494    1.935160   -0.925518
H      -0.763019    1.937916    0.804352
H      -2.138436   -0.308333    0.408063
H      -1.539452   -1.215441   -0.990011
H      -1.156026   -1.807233    1.973263
H      -0.484707   -2.844759    0.704441
H       1.233166   -0.715445    1.926380
H       0.293503   -2.430723   -1.387266
H       1.313266   -1.403702   -2.402779
H       2.053243   -2.526263   -1.255107
H       4.434176    1.107198   -0.379402
