16

C      -0.094600   -1.228213   -0.040242
C      -0.058936   -0.028051   -0.010674
C       0.001070    1.425812    0.005842
C       1.455421    1.976084    0.048270
C       1.423387    3.521961   -0.107459
C       2.753658    4.112950   -0.221279
N       3.804525    4.580329   -0.328771
C       2.143738    1.587767    1.273871
C       2.693403    1.296934    2.301258
H      -0.130957   -2.289392   -0.058263
H      -0.493874    1.823036   -0.889565
H      -0.549960    1.814679    0.870874
H       1.995116    1.560639   -0.810610
H       0.849937    3.785279   -1.003415
H       0.909894    3.967387    0.751430
H       3.194735    1.028977    3.198571
