21

C      -0.045707    1.618554    0.075052
C       0.030924    0.085943    0.013182
C       0.760328   -0.363888   -1.270939
C      -0.042892   -0.072762   -2.515477
O       0.343859    0.558472   -3.465369
C       0.711075   -0.519620    1.277172
C       0.045673   -0.071624    2.596030
C       0.734772   -1.981424    1.211370
C       0.724379   -3.183559    1.171943
H       0.950291    2.054475    0.217626
H      -0.446239    2.025092   -0.858676
H      -0.688157    1.966576    0.886966
H      -0.991712   -0.315930   -0.020567
H       1.740041    0.116593   -1.362697
H       0.910441   -1.451187   -1.231174
H      -1.072485   -0.505491   -2.499694
H       1.752361   -0.164848    1.287434
H      -1.019239   -0.324724    2.597253
H       0.512135   -0.577634    3.444665
H       0.148146    1.005560    2.744374
H       0.729973   -4.245100    1.139217
