20

C      -0.251926    1.550243   -0.082241
C       0.120013    0.071486    0.085586
C       0.743515   -0.533219   -1.157190
O       1.928029    0.077905   -1.582891
C       0.719734   -1.997452   -1.440550
C       0.106610   -3.031904   -0.524677
C      -0.147015   -1.062272   -2.302556
C      -1.572851   -1.071307   -2.176345
N      -2.725309   -1.068486   -2.058276
H       0.627068    2.169309   -0.295325
H      -0.977080    1.687289   -0.890637
H      -0.699178    1.939995    0.835986
H       0.835815   -0.042061    0.908568
H      -0.774442   -0.493913    0.358529
H       1.738145    1.001733   -1.781838
H       1.605390   -2.331642   -1.973382
H      -0.845761   -2.703146   -0.102742
H      -0.084023   -3.958375   -1.075061
H       0.785249   -3.265368    0.302093
H       0.219667   -0.861118   -3.302991
