17

C      -0.085439    1.605510   -0.059675
C      -0.051566    0.081234   -0.069898
C      -1.437059   -0.537585    0.168504
O      -1.928250   -0.194602    1.447742
C       0.811605   -0.585190   -1.191299
N       1.709516   -1.060168   -0.129107
C       0.961188   -0.568619    0.905358
O       1.025891   -0.676465    2.107078
H       0.920457    2.031259   -0.125322
H      -0.672849    1.981553   -0.904867
H      -0.554632    1.958736    0.861221
H      -2.160904   -0.155854   -0.561179
H      -1.379351   -1.631169    0.035772
H      -1.242141   -0.432868    2.087487
H       0.312116   -1.389213   -1.742464
H       1.279965    0.109769   -1.894301
H       2.465142   -1.729962   -0.140285
