18

C       0.080678    1.589521    0.041920
C      -0.024293    0.058245   -0.007534
C      -1.469372   -0.465816    0.042192
C      -2.183190   -0.174870    1.357408
O      -3.445063   -0.820238    1.298044
C       0.674440   -0.468652   -1.254933
F       1.958454   -0.073206   -1.306047
F       0.676301   -1.811300   -1.296362
F       0.080957   -0.035641   -2.380924
H       1.120631    1.911026   -0.048901
H      -0.490254    2.042573   -0.774161
H      -0.309735    1.974556    0.986310
H       0.539304   -0.367641    0.832498
H      -2.048786   -0.035231   -0.781668
H      -1.468790   -1.550294   -0.103238
H      -1.579000   -0.553409    2.199339
H      -2.302330    0.909472    1.502815
H      -3.930959   -0.607702    2.100098
