22

C      -0.372893   -2.864213    0.032618
C      -0.512849   -1.421190   -0.467355
C       0.187230   -1.221455   -1.797576
C      -0.536052   -1.395976   -3.091254
N      -0.055782   -0.080131   -2.679464
C      -1.040063    0.931473   -2.318309
C      -1.305586    1.818799   -3.513972
C      -2.476338    1.626785   -4.377885
O      -2.438499    2.681455   -3.413818
H      -0.832011   -3.569518   -0.667733
H       0.680690   -3.143844    0.141068
H      -0.853492   -2.993114    1.006888
H      -1.573745   -1.164437   -0.550622
H      -0.083379   -0.734896    0.274412
H       1.239900   -1.506590   -1.774110
H      -0.050335   -1.836738   -3.958043
H      -1.608282   -1.584943   -3.029394
H      -2.002036    0.528374   -1.963328
H      -0.624002    1.542716   -1.507640
H      -0.417271    2.278439   -3.947531
H      -2.442211    1.943174   -5.419325
H      -3.178265    0.822178   -4.160129
