16

O      -0.072741    1.382420   -0.069178
C      -0.038464   -0.011447    0.017635
C      -0.502770   -0.823855   -1.157805
C      -1.339048   -0.778911    0.112197
C      -1.122022   -1.900356    1.099567
O      -0.119922   -2.853702    0.710683
C       0.249527   -1.820208    1.634040
C       0.958514   -0.624927    1.016132
H       0.565904    1.655725   -0.736463
H      -0.890822   -0.258055   -1.998338
H      -0.001902   -1.753716   -1.397186
H      -2.291608   -0.264374    0.099308
H      -1.959531   -2.310427    1.656167
H       0.533167   -2.170559    2.623576
H       1.915176   -0.903173    0.560590
H       1.159186    0.120563    1.793135
