20

C       0.214980    1.317733    0.263476
N       0.259541   -0.135781    0.333586
C       0.614999   -0.788227   -0.677785
O       0.991155   -0.284308   -1.919867
C       1.290218   -1.510068   -2.648899
C       0.088045   -2.406067   -2.282662
C       0.752046   -2.276471   -0.865571
C       2.145773   -2.292987   -1.614645
C       2.735148   -3.641339   -2.001791
H       0.479327    1.731846   -0.716037
H      -0.792778    1.656428    0.529206
H       0.895670    1.732884    1.015686
H       1.604643   -1.261717   -3.661109
H      -0.906478   -1.977503   -2.421010
H       0.134829   -3.412361   -2.695490
H       0.509458   -2.909335   -0.016226
H       2.915439   -1.672623   -1.144687
H       2.010259   -4.317885   -2.461370
H       3.560469   -3.508189   -2.709868
H       3.140340   -4.143316   -1.117159
