16

C       0.042545    1.371554   -0.086377
C       1.527561    1.867483    0.058660
C       2.122188    0.705231    0.806401
C       3.219899   -0.268702    1.032116
C       2.187543   -1.439239    1.015708
C       1.493457   -0.734474    2.203034
N       2.536592    0.398914    2.219009
C       1.097677   -0.399422    0.788685
O       0.022263   -0.083310   -0.000972
H      -0.570088    1.782288    0.725307
H      -0.409903    1.636999   -1.043419
H       1.992224    1.993274   -0.923369
H       1.578816    2.820216    0.590295
H       4.292553   -0.210856    0.879764
H       2.254128   -2.496443    0.801498
H       1.013173   -1.159991    3.075680
