15

N      -0.090460    1.339960    0.062486
C      -0.001048   -0.046570    0.112926
O       1.053972   -0.650671    0.044785
N      -1.214844   -0.682469    0.216484
C      -2.529905   -0.255268   -0.293169
C      -2.889742   -1.751678   -0.504294
C      -1.420572   -2.095687   -0.126691
H       0.797187    1.790918    0.225171
H      -0.867774    1.775306    0.536233
H      -3.143705    0.288783    0.434230
H      -2.466788    0.336559   -1.214163
H      -3.630299   -2.130040    0.201320
H      -3.191101   -2.021289   -1.516502
H      -0.788941   -2.424980   -0.958073
H      -1.282438   -2.783793    0.712213
