17

O      -0.175394    1.513760    0.043271
C      -0.000982    0.120262   -0.062256
C      -1.329106   -0.606305    0.190864
O      -2.330228   -0.150210   -0.727091
C      -2.472082   -1.112526   -1.783621
C      -2.304264   -2.463836   -1.081050
O      -1.920754   -3.526686   -1.901968
C      -1.234829   -2.103675   -0.052227
O      -0.413131   -2.878192    0.369112
H      -0.927767    1.734481   -0.519664
H       0.396087   -0.168743   -1.048904
H       0.728998   -0.187055    0.692014
H      -1.672182   -0.377885    1.206617
H      -3.452527   -0.957510   -2.235655
H      -1.697857   -0.998530   -2.555876
H      -3.232113   -2.687941   -0.524687
H      -1.242880   -4.015598   -1.411810
