18

O      -0.405286    0.573921    0.843498
C       0.081957    0.992479   -0.173760
C       1.382800    1.760662   -0.258430
C       1.206373    3.108496   -0.982367
C       2.519396    3.843542   -1.144424
C       3.438576    3.545539   -2.290480
C       2.711793    4.883590   -2.243581
C       1.656291    5.145416   -3.181127
N       0.800857    5.352477   -3.932566
H      -0.419483    0.833776   -1.157763
H       1.775747    1.891443    0.754133
H       2.096129    1.143069   -0.823277
H       0.752562    2.944030   -1.966768
H       0.504008    3.736593   -0.421480
H       3.002905    4.111726   -0.208747
H       4.510679    3.564600   -2.134018
H       3.101701    2.838039   -3.040266
H       3.302477    5.757921   -1.992820
