19

C      -0.030741    1.475847    0.035119
C       0.056988   -0.027973    0.004683
C       1.124744   -0.805116   -0.815760
C       0.825244   -1.966347    0.160680
C       0.369279   -0.936650    1.265390
C      -1.078593   -1.507254    1.289479
C      -1.244499   -0.867957   -0.085581
C      -0.688178   -2.274709    0.039826
O      -1.306760   -3.326800   -0.599710
H       0.938059    1.926032    0.278110
H      -0.348276    1.873140   -0.936643
H      -0.757009    1.813313    0.783428
H       0.948145   -0.966152   -1.884363
H       2.126688   -0.389192   -0.662839
H       1.518343   -2.786193    0.351192
H       0.982020   -0.635941    2.112360
H      -1.800619   -1.697847    2.072252
H      -2.157547   -0.667853   -0.632185
H      -1.161373   -4.123453   -0.077713
