17

O       0.064694    0.026237   -0.026382
C       0.011419    1.220719    0.007644
C      -1.158817    2.186338    0.054894
C      -0.742290    3.246453    1.119815
C      -1.056359    4.294008    0.039440
N      -0.856507    3.239815   -1.017995
C       0.622027    3.078596   -1.249968
C       1.108083    2.301959   -0.007879
N       0.716472    2.990266    1.240398
H      -2.173568    1.798862    0.035480
H      -1.226045    3.290716    2.099272
H      -2.099942    4.626865    0.034772
H      -0.398311    5.167190   -0.037615
H       0.787226    2.504540   -2.170227
H       1.087494    4.060812   -1.372559
H       2.135951    1.943695    0.001858
H       1.229986    3.856238    1.376062
