23

C      -0.180215    1.549578    0.026449
C       0.047095    0.034867    0.024270
C       0.829679   -0.480887    1.205996
C       2.158893    0.121884    1.737182
C       1.571412   -0.490431    3.021280
O       0.235130   -0.176199    2.520847
C       1.658339   -2.018139    2.788245
C       0.845043   -2.831366    3.791305
C       1.072804   -2.004294    1.336381
H       0.762210    2.096736   -0.077006
H      -0.828068    1.845986   -0.803696
H      -0.651355    1.864368    0.961237
H      -0.920113   -0.484521    0.015277
H       0.568777   -0.272668   -0.891285
H       3.107990   -0.258050    1.348441
H       2.140926    1.211600    1.756351
H       1.772696   -0.100902    4.020193
H       2.702565   -2.349613    2.796063
H      -0.181355   -2.454619    3.834741
H       0.808857   -3.888824    3.509153
H       1.275327   -2.769901    4.797395
H       0.132639   -2.558268    1.263681
H       1.762948   -2.390350    0.580832
