19

C      -0.204498    1.552941   -0.003932
C      -0.003348    0.056250   -0.066888
C       0.705764   -0.637111   -1.189663
C       1.295276    0.086501   -2.378516
C       1.371417   -0.583753    0.197252
C       2.517218    0.230041    0.418205
C       3.503844    0.902352    0.625891
C       4.658108    1.724263    0.847330
O       5.573094    1.449785    1.592985
H       0.665673    2.103546   -0.366521
H      -1.069766    1.849964   -0.606192
H      -0.388469    1.872556    1.026747
H      -0.816120   -0.511281    0.378951
H       0.324891   -1.626939   -1.427644
H       1.759066    1.034274   -2.098416
H       2.065428   -0.526301   -2.857722
H       0.520664    0.294530   -3.124388
H       1.362249   -1.510162    0.763494
H       4.656201    2.669113    0.264403
