19

C       0.010653    1.554656    0.104169
O       1.397626    1.896661   -0.088533
C       2.228454    0.736177    0.038048
C       1.323401   -0.285187    0.710464
O       1.651522   -1.646440    0.554708
C       0.627272   -2.417663    1.155031
O      -0.648425   -2.187733    0.615414
C      -1.077958   -0.827205    0.730556
C      -0.022229    0.033778    0.052917
H      -0.333678    1.943815    1.074460
H      -0.577860    2.034830   -0.683807
H       2.555208    0.371615   -0.946508
H       3.111797    1.003023    0.625592
H       1.255847   -0.048009    1.788377
H       0.864868   -3.465104    0.964151
H       0.616484   -2.215098    2.242872
H      -2.059441   -0.779146    0.252388
H      -1.193197   -0.547682    1.791230
H       0.046995   -0.293109   -0.991706
