18

C       0.131835    1.478518   -0.153838
C       0.068295   -0.014093   -0.103637
C      -0.022380   -0.957332   -1.114806
C      -0.020417   -0.664442   -2.593893
C       1.369770   -0.217561   -3.004986
O       1.658580    0.902481   -3.346570
C      -0.075723   -2.242632   -0.497451
C      -0.028495   -2.053520    0.861140
N       0.056925   -0.701399    1.085455
H       0.890554    1.872899    0.532412
H       0.396176    1.814564   -1.158590
H      -0.825538    1.943926    0.115045
H      -0.276522   -1.576357   -3.145986
H      -0.732501    0.118710   -2.870657
H       2.146918   -1.010696   -2.918633
H      -0.148077   -3.192712   -1.005474
H      -0.049131   -2.754260    1.679863
H       0.106326   -0.268992    1.991888
