17

C       0.100106    1.438655    0.108484
C      -0.042251   -0.089599    0.003881
C      -1.511446   -0.470275   -0.015323
O      -2.064490   -1.156781    0.803983
C       0.626587   -0.631551   -1.251163
C       2.088770   -1.001487   -1.229317
C       1.038704   -2.079874   -1.331469
H       1.155692    1.722743    0.073881
H      -0.407175    1.938677   -0.724617
H      -0.329467    1.816983    1.040890
H       0.397343   -0.568708    0.885800
H      -2.072726   -0.053565   -0.887353
H       0.262896   -0.185177   -2.174197
H       2.688821   -0.779306   -2.104758
H       2.621859   -0.901793   -0.289297
H       0.863994   -2.700479   -0.458873
H       0.920379   -2.598766   -2.275987
