18

O      -0.054974    1.439393   -0.024144
C       0.016110    0.023239   -0.009294
C      -1.412594   -0.507028    0.058205
C      -1.424607   -2.038553    0.159551
C      -0.438744   -2.689419   -0.766205
C       0.526400   -2.015623   -1.410424
C       0.728221   -0.519480   -1.256654
C       1.422892   -2.703920   -2.285951
N       2.168350   -3.225917   -3.003074
H       0.842082    1.788748   -0.037881
H       0.561547   -0.325087    0.884254
H      -1.928811   -0.057068    0.910725
H      -1.942547   -0.184872   -0.845945
H      -1.200907   -2.359116    1.188128
H      -2.428785   -2.427733   -0.048310
H      -0.517565   -3.763491   -0.908176
H       0.339988    0.005778   -2.138911
H       1.801452   -0.297972   -1.212725
