19

C       0.023422    1.476361   -0.002622
O       1.473591    1.468280    0.010819
C       1.503318    0.036847    0.053344
C       2.521400   -0.686063   -0.817381
C       2.802333   -1.935270   -0.009755
C       2.253949   -1.906220    1.208447
C       1.491398   -0.637200    1.465457
C      -0.072852   -0.727536    1.403617
C      -0.049485   -0.064062    0.001719
H      -0.397429    1.979925    0.877337
H      -0.357864    1.962302   -0.908573
H       2.140983   -0.898695   -1.824067
H       3.419735   -0.065963   -0.947966
H       3.401734   -2.751464   -0.398910
H       2.339027   -2.700479    1.943407
H       1.892595   -0.044959    2.293928
H      -0.448720   -1.753580    1.398907
H      -0.609958   -0.164753    2.172645
H      -0.603756   -0.535644   -0.809886
