17

N       0.096027   -1.068778    0.060119
C       0.036989    0.086675    0.039395
C      -0.016412    1.518129    0.003871
C       0.402828    2.256267   -1.253377
C       1.234717    2.413435   -0.012165
C       0.782706    3.396905    1.085638
C      -0.706685    3.629479    0.764887
N      -0.893524    2.148360    1.039941
C       0.184186    2.376234    2.109584
H       0.826686    1.611703   -2.016575
H      -0.201215    3.057812   -1.658065
H       2.235600    2.001606    0.024892
H       1.471539    4.198293    1.356986
H      -1.227426    4.191225    1.541471
H      -1.031284    3.990796   -0.209612
H       0.763718    1.487029    2.366685
H      -0.256993    2.825234    3.002007
