19

C       0.194660    1.416040    0.093228
O      -0.123150    0.048912   -0.074377
C       0.548154   -0.574175   -1.155674
C       1.999329   -0.653271   -0.955062
C       3.184975   -0.723667   -0.771114
C      -0.077808   -1.968274   -1.282549
C      -1.542824   -2.016081   -1.758219
C      -0.972643   -2.800889   -2.957312
O       0.378735   -2.657234   -2.461897
H       1.260387    1.560786    0.313032
H      -0.061156    2.001402   -0.803496
H      -0.399397    1.777869    0.935280
H       0.350815   -0.024667   -2.092450
H       4.234085   -0.790982   -0.619246
H       0.136550   -2.534771   -0.368454
H      -2.230061   -2.561915   -1.111775
H      -1.972346   -1.041235   -1.994650
H      -1.271628   -3.854303   -3.016711
H      -1.095748   -2.341919   -3.945247
