17

C      -0.162476    1.460739    0.658467
C       0.080639    0.024047    0.253840
C       0.386012   -0.370996   -1.172134
C       0.513719    0.666991   -2.165104
N       0.623708    1.497189   -2.963733
N       1.384447   -0.516174   -0.103276
C       2.570958    0.350147   -0.103375
C       3.658646   -0.265727   -0.855702
C       4.556384   -0.758037   -1.482669
H       0.195449    1.635263    1.678508
H       0.318347    2.179322   -0.007543
H      -1.237214    1.665955    0.645287
H      -0.518980   -0.695628    0.809793
H       0.006232   -1.308460   -1.569186
H       2.384107    1.355645   -0.507549
H       2.868975    0.475184    0.944372
H       5.350578   -1.191378   -2.038804
