20

C      -0.025424    1.557268    0.040339
C       0.006418    0.028345   -0.007851
C       0.713498   -0.542204   -1.246274
C       0.672963   -2.081316   -1.353224
C       0.810461   -2.299472   -2.865726
C       0.075162   -1.079410   -3.447055
O       0.044028   -0.080082   -2.414995
C       2.130356   -0.082755   -1.281301
N       3.233191    0.262198   -1.315314
H       0.985468    1.974068    0.081007
H      -0.524079    1.959597   -0.844752
H      -0.566892    1.899112    0.926858
H       0.501947   -0.373887    0.883454
H      -1.013493   -0.371375   -0.022525
H       1.453016   -2.568858   -0.766040
H      -0.301807   -2.423118   -0.990759
H       1.865256   -2.287755   -3.154440
H       0.380361   -3.245306   -3.201352
H       0.574902   -0.670232   -4.331303
H      -0.961894   -1.312933   -3.715970
