16

C       0.051982    1.417020   -0.002703
N       0.037040   -0.023255    0.036693
N      -0.010067   -0.753352   -1.126931
C      -0.012699   -2.033353   -0.769337
C       0.032569   -2.182333    0.641028
C       0.062674   -0.865443    1.093741
N       0.108953   -0.832060    2.457266
C       0.107865   -2.163588    2.891516
C       0.062246   -3.009360    1.814161
H       0.964343    1.820316    0.452938
H       0.019878    1.710354   -1.051618
H      -0.818269    1.840432    0.513095
H      -0.046964   -2.789098   -1.540277
H       0.136351   -0.025146    3.052996
H       0.140659   -2.379178    3.947765
H       0.051912   -4.086593    1.869710
