18

C      -0.033255    1.557683   -0.016497
C       0.042762    0.031425   -0.053077
C       0.826809   -0.537558   -1.257217
C       1.304711   -1.899968   -0.728252
C       1.375594   -1.680503    0.803712
O       0.822646   -0.389635    1.070352
C      -1.309596   -0.556862    0.008741
C      -2.407382   -1.044806    0.060352
H       0.978161    1.972411   -0.033568
H      -0.592387    1.933153   -0.877576
H      -0.535120    1.890159    0.895031
H       0.221040   -0.610863   -2.162178
H       1.674071    0.126057   -1.457085
H       0.579294   -2.680555   -0.970375
H       2.266776   -2.197315   -1.151160
H       0.811851   -2.452235    1.343027
H       2.401063   -1.677543    1.187139
H      -3.378403   -1.471900    0.113403
