17

O       0.104333    1.425780   -0.054818
C       0.061604    0.011105   -0.069145
C      -1.364301   -0.525591    0.171763
C      -1.422674   -2.017563    0.139383
C      -1.593276   -2.919112    1.108676
C      -1.555973   -4.298466    0.522425
O      -1.345623   -4.103525   -0.874883
C      -1.261588   -2.762531   -1.141931
O      -1.088124   -2.329822   -2.248301
H      -0.315955    1.741539   -0.861073
H       0.451832   -0.401572   -1.008764
H       0.719524   -0.320202    0.741133
H      -1.733845   -0.141382    1.126876
H      -2.013259   -0.132612   -0.621410
H      -1.745511   -2.732563    2.164307
H      -0.739929   -4.912124    0.925080
H      -2.493916   -4.849132    0.669135
