14

C      -0.163642   -1.201884   -0.201722
C      -0.080412   -0.007576   -0.085308
C       0.061861    1.435144    0.051792
C      -0.178579    1.973781    1.497540
C       1.371094    2.005025    1.627693
N       1.469704    1.925713    0.151891
C       1.986398    3.188363    2.228239
N       2.463921    4.118847    2.719785
H      -0.248074   -2.255178   -0.311056
H      -0.501898    1.943242   -0.736937
H      -0.617419    2.970941    1.498128
H      -0.710728    1.320808    2.185927
H       1.743672    1.116643    2.154044
H       2.174055    1.284201   -0.197249
