19

C       0.070458    1.531039   -0.006483
C       0.006565    0.002289    0.052221
N       0.707324   -0.641342   -1.077364
C       1.856193   -1.259329   -0.601218
C       2.829458   -1.835066   -1.575258
C       1.901826   -1.286756    0.754481
C       0.750930   -0.569788    1.257781
N       0.307527   -0.366477    2.442981
O       1.150770   -0.976648    3.401461
H       1.110111    1.873132   -0.026060
H      -0.444392    1.915604   -0.894073
H      -0.410508    1.948070    0.882127
H      -1.041307   -0.316247    0.064370
H       0.791683   -0.098260   -1.926092
H       3.235039   -1.056496   -2.233958
H       3.663598   -2.310751   -1.057044
H       2.343650   -2.578313   -2.217416
H       2.637380   -1.787628    1.361398
H       0.697726   -0.767582    4.224161
