16

N      -0.424817    1.373180    0.139841
C      -0.370173    0.118972    0.226765
O      -1.224348   -0.638038   -0.506177
C      -1.175300   -2.045236   -0.341495
C      -2.212456   -2.556699    0.673699
C      -1.875038   -2.216086    2.047862
C      -1.570123   -1.924339    3.173257
C      -1.397395   -2.651000   -1.727110
O      -1.836165   -3.754664   -1.908565
H       0.284240    1.796554    0.734465
H       0.315637   -0.476234    0.842187
H      -0.168285   -2.354673   -0.018294
H      -3.189209   -2.138059    0.405002
H      -2.286212   -3.642103    0.544191
H      -1.321839   -1.674219    4.175128
H      -1.102592   -1.975027   -2.556991
