17

O      -0.346461    1.612751   -0.664357
C      -0.164827    0.292257   -0.190226
C      -1.460488   -0.488570   -0.294094
O      -1.965068   -0.590716   -1.667624
C      -2.242325   -1.979773   -1.464136
C      -0.972937   -2.777121   -1.324008
C       0.262591   -2.474495   -2.094455
O       1.139614   -3.284233   -2.279688
C      -1.560555   -1.999945   -0.127625
H      -0.661288    1.543186   -1.573178
H       0.649302   -0.222012   -0.718797
H       0.123181    0.368872    0.864331
H      -2.227935    0.012970    0.309059
H      -3.186487   -2.369748   -1.825091
H      -1.128085   -3.844612   -1.189339
H       0.312122   -1.459534   -2.534928
H      -1.811683   -2.524578    0.783322
