11

C      -0.128434   -1.213594    0.001506
C      -0.053073   -0.015338    0.027011
C       0.021752    1.417042    0.018984
N       0.532339    2.088809    1.225695
C       1.337609    2.155835   -0.000983
C       2.598856    1.455638    0.003099
N       3.618853    0.913876   -0.031494
H      -0.181427   -2.274556   -0.010323
H      -0.774049    1.914694   -0.532062
H       0.051101    2.973339    1.368652
H       1.355340    3.084346   -0.565932
