23

C      -0.199841    1.361505    0.023980
O       0.159916    0.003505   -0.070832
C       0.754267   -0.536086    1.099263
C      -0.253222   -0.723288    2.244700
C       0.294421   -1.621045    3.325156
C       1.368178   -2.394058    3.168908
C       2.153153   -2.503028    1.883147
C       2.537240   -3.960651    1.584237
C       1.375282   -1.876281    0.714607
H       0.654730    1.988468    0.325505
H      -0.532153    1.676787   -0.968578
H      -1.020377    1.536466    0.735230
H       1.554697    0.143357    1.442981
H      -0.531133    0.244304    2.680015
H      -1.179548   -1.143589    1.826505
H      -0.226117   -1.610130    4.280083
H       1.718308   -3.000722    4.002238
H       3.092816   -1.942028    2.012955
H       1.643539   -4.581785    1.459416
H       3.127794   -4.029196    0.664695
H       3.131652   -4.388383    2.398472
H       0.569711   -2.554313    0.403834
H       2.027073   -1.736078   -0.153709
