18

O      -0.146122    1.167373    0.401094
N      -0.006095   -0.195671    0.070106
C      -1.137003   -0.733285   -0.111877
C      -2.574860   -0.261023   -0.147260
C      -2.917598   -1.603002   -0.883841
C      -1.486634   -2.139770   -0.544086
C      -4.104647   -2.371606   -0.371176
C      -4.119974   -3.833362   -0.241496
O      -3.970474   -2.996147    0.909023
H       0.770841    1.446339    0.494596
H      -3.021310   -0.201603    0.851150
H      -2.764337    0.676130   -0.675111
H      -3.037880   -1.435171   -1.958470
H      -0.899066   -2.573258   -1.356048
H      -1.512057   -2.834991    0.301393
H      -5.065499   -1.871911   -0.512807
H      -5.062760   -4.374252   -0.305875
H      -3.235916   -4.407110   -0.516126
