15

C      -0.047528    1.542826    0.032916
C      -0.050004    0.047068    0.033971
C      -1.164997   -0.707905   -0.012850
O      -2.426671   -0.206753   -0.002642
N      -1.059549   -2.084828   -0.044005
N       0.120090   -2.759848    0.030652
N       1.191915   -2.107098    0.072513
C       1.218412   -0.672982    0.077061
N       2.338952   -0.054806    0.112538
H       0.587986    1.912595   -0.778142
H      -1.055610    1.945563   -0.073099
H       0.396354    1.921371    0.959978
H      -2.972902   -0.666686   -0.651945
H      -1.864113   -2.673150    0.107157
H       3.094398   -0.743036    0.126589
