18

C       0.017949    1.567938   -0.113673
C       0.045736    0.115586   -0.024522
C       0.067188   -1.086802    0.040680
C       0.067005   -2.529357    0.123544
C       0.172593   -3.185553    1.543511
N      -1.121585   -3.813977    1.285650
C      -1.938675   -4.700718    2.071223
C      -1.323408   -3.255948    0.051621
O      -2.223907   -3.333932   -0.738725
H       0.755172    1.936922   -0.835196
H      -0.967100    1.925962   -0.432682
H       0.241186    2.030390    0.854211
H       0.769810   -2.972592   -0.589277
H       0.999249   -3.893441    1.670424
H       0.165682   -2.468532    2.370357
H      -2.231168   -4.240903    3.023184
H      -2.840093   -4.918272    1.493443
H      -1.419117   -5.642693    2.285571
