19

C      -0.028784    1.558874    0.090569
C      -0.035328    0.058873    0.110272
C       1.142048   -0.786589   -0.360801
C       0.645189   -0.996392    1.019694
O       1.450070   -0.886633    2.125948
C      -0.617631   -1.856127    1.023828
O      -1.231066   -1.854266    2.294434
C      -1.290104   -0.812417    0.041746
O      -2.391643   -0.157696    0.661220
H       0.924368    1.941554    0.469392
H      -0.166321    1.953638   -0.923807
H      -0.830334    1.961430    0.716434
H       1.031132   -1.548763   -1.132987
H       2.074197   -0.232074   -0.419637
H       0.854249   -0.996238    2.881330
H      -0.519584   -2.895005    0.685485
H      -1.850528   -1.106026    2.276046
H      -1.575336   -1.186384   -0.950542
H      -3.193540   -0.640407    0.436148
