20

C       0.097745    1.554554    0.198920
C       0.145388    0.061735    0.045578
C      -0.910025   -0.847229    0.620700
C       0.533216   -0.920689    1.119056
C       1.410435   -1.926190    0.433439
C       2.679647   -2.397613    1.036046
N       1.547295   -3.328615    0.842602
C       1.225009   -1.656540   -1.063678
O       0.732833   -0.324417   -1.179701
H       1.103669    1.981084    0.135321
H      -0.511468    2.001114   -0.593757
H      -0.340250    1.830526    1.161846
H      -1.637161   -0.402319    1.291717
H      -1.294892   -1.664774    0.020450
H       0.770935   -0.609358    2.130262
H       3.543548   -2.594100    0.405829
H       2.922910   -2.071333    2.044719
H       1.068184   -3.482380    1.726758
H       2.153477   -1.730939   -1.637298
H       0.509112   -2.378612   -1.480632
