17

O      -0.019022    0.010884   -0.367109
C       0.013025    1.173581   -0.097563
O      -1.110716    1.920571    0.122445
C      -0.715759    3.282540    0.453881
C       0.610670    3.450320   -0.300867
C       1.230264    2.110753    0.093838
O       1.632883    2.144517    1.459234
C       0.550072    2.291908    2.380287
C      -0.458143    3.378685    1.962121
H      -1.524071    3.934240    0.121130
H       0.443759    3.513580   -1.380428
H       1.203360    4.303398    0.032641
H       2.090590    1.778649   -0.484958
H       0.025497    1.332128    2.488943
H       1.009472    2.527810    3.342768
H      -0.072460    4.379282    2.186088
H      -1.386582    3.243708    2.525892
