21

C       0.827098    1.332299   -0.425127
C       0.045471    0.102895    0.023582
C      -0.075205   -0.991308   -1.066096
C       0.967026   -2.004875   -0.627454
C       1.239044   -3.297060   -1.355065
C       2.251804   -2.172665   -1.384036
O       2.409153   -1.407385   -2.542908
C       0.969322   -1.876674    0.880830
O       0.736081   -0.500539    1.134793
H       1.778969    1.037412   -0.877838
H       0.254837    1.902935   -1.164473
H       1.032711    1.982739    0.429766
H      -0.950664    0.410299    0.370507
H      -1.073333   -1.442529   -1.057738
H       0.119852   -0.604343   -2.067517
H       1.467544   -4.188775   -0.778724
H       0.680386   -3.476790   -2.268383
H       3.161651   -2.300188   -0.795783
H       2.867504   -1.943097   -3.198574
H       0.174827   -2.500390    1.326092
H       1.920847   -2.160954    1.344561
