16

O      -0.117907    1.415562   -0.074660
C      -0.037805    0.002025   -0.002744
C       0.240118   -0.630657    1.424661
C      -1.140815   -1.288374    1.372583
C      -2.197328   -0.235308    1.218718
C      -1.420132   -0.662645    0.004207
C       0.855618   -0.526694   -1.029048
C       1.616375   -0.931828   -1.867857
H       0.775280    1.757203   -0.192289
H       1.074335   -1.333062    1.406547
H       0.393710    0.106792    2.218629
H      -1.364677   -2.293757    1.704245
H      -3.222748   -0.589845    1.239288
H      -2.053505    0.756809    1.635679
H      -1.892166   -1.086388   -0.872673
H       2.279644   -1.294360   -2.614025
