18

C      -0.401962    1.217050   -0.284709
C       0.116270   -0.159546    0.015996
O      -0.567546   -0.918931    1.029704
C       0.812068   -0.590621    1.234346
C       1.766025   -1.710231    0.887723
N       1.309815   -2.149631   -0.439169
C       0.621261   -1.055590   -1.123157
C      -0.549340   -1.578471   -1.947574
O      -0.975553   -1.027990   -2.930300
H       0.377383    1.834722   -0.742520
H      -1.242430    1.169887   -0.984249
H      -0.742005    1.699014    0.634766
H       1.024319    0.079307    2.063526
H       2.792391   -1.306633    0.901108
H       1.722829   -2.540668    1.602365
H       2.050428   -2.554488   -0.994983
H       1.252104   -0.438816   -1.782667
H      -0.994164   -2.510300   -1.538795
