21

C       0.315147    1.566954   -0.386042
C       0.031604    0.071585   -0.173724
C       0.519839   -0.364617    1.221325
N      -1.380192   -0.354536   -0.290584
C      -2.425051    0.330155    0.455013
C      -2.367238    0.424018   -1.030717
C       0.874352   -0.727884   -1.205217
N       0.268956   -1.835078   -1.698545
O       2.006073   -0.386632   -1.499320
H       1.388381    1.734275   -0.290579
H       0.028213    1.900001   -1.386935
H      -0.202755    2.183564    0.355055
H       0.026991    0.224754    2.001027
H       0.293194   -1.420370    1.393287
H       1.599100   -0.217469    1.301556
H      -3.151892   -0.311015    0.946473
H      -2.164931    1.227046    1.012502
H      -2.079067    1.382344   -1.452366
H      -3.049163   -0.153866   -1.648668
H      -0.660764   -2.064407   -1.387349
H       0.784733   -2.435659   -2.319030
