18

O       0.008209   -0.037671    0.532495
C      -0.060748    1.063098    0.057218
C      -1.385197    1.820147   -0.040766
C      -1.737068    2.361273   -1.412388
C      -2.274890    3.744521   -1.560369
N      -0.925808    3.419423   -2.011505
C       0.207413    3.878812   -1.215834
C       1.281249    2.800986   -1.178510
O       1.094571    1.684706   -0.290817
H      -2.151855    1.117579    0.291377
H      -1.352347    2.629475    0.695934
H      -2.054237    1.602380   -2.125137
H      -2.988544    3.984635   -2.343464
H      -2.384490    4.331509   -0.649173
H       0.637279    4.755618   -1.714941
H      -0.053245    4.194845   -0.193706
H       1.416334    2.406470   -2.192254
H       2.228380    3.237604   -0.851408
