20

C       0.104793    1.234373   -0.282123
O      -0.021861   -0.023954    0.339594
C      -1.307650   -0.571330    0.220792
C      -1.738291   -1.165534   -1.152755
C      -2.283798   -2.405893   -0.400543
C      -3.791264   -2.378230   -0.167332
O      -1.890261   -3.607010   -1.038081
C      -1.446238   -1.972403    0.845234
H       1.128420    1.578788   -0.116198
H      -0.078301    1.179439   -1.365891
H      -0.592311    1.972256    0.146599
H      -2.057482    0.137067    0.607287
H      -2.436568   -0.605025   -1.778765
H      -0.857568   -1.447379   -1.735037
H      -4.324126   -2.512115   -1.113935
H      -4.093235   -3.182593    0.515818
H      -4.112379   -1.432057    0.280219
H      -2.247103   -4.345926   -0.532724
H      -0.476545   -2.475443    0.837625
H      -1.902052   -2.053242    1.835245
