17

C      -0.351093    1.547883    0.109158
C       0.043753    0.074691    0.059780
N       1.304797   -0.204975   -0.692039
C       1.812019   -1.123608    0.364809
C       0.745558   -0.554232    1.296073
C       0.829116   -0.042719    2.660931
O       0.103379   -1.242583    2.329671
C      -1.083800   -0.758074   -0.387640
N      -1.950015   -1.413774   -0.783781
H       0.506057    2.138203    0.439962
H      -0.651983    1.895891   -0.883015
H      -1.190458    1.703653    0.793635
H       1.164036   -0.631599   -1.601309
H       1.646834   -2.190772    0.170349
H       2.860436   -0.959591    0.630010
H       1.741451   -0.194471    3.235199
H       0.213326    0.800196    2.968123
