18

O      -0.158662    1.307277    0.138550
N       0.007374   -0.090449    0.212138
C      -1.099558   -0.684926    0.019871
C      -2.464495   -0.084517   -0.235005
O      -3.304691   -1.181407   -0.565455
C      -2.772124   -2.347214    0.056279
C      -1.260427   -2.162082    0.021976
C      -0.346461   -3.037664   -0.815076
C      -0.281183   -3.090294    0.685905
H       0.734870    1.629028    0.297522
H      -2.816825    0.447008    0.664435
H      -2.461195    0.629173   -1.063878
H      -3.131091   -2.430109    1.096122
H      -3.123933   -3.218794   -0.502310
H      -0.797164   -3.871389   -1.343836
H       0.458231   -2.536550   -1.341248
H       0.569267   -2.630360    1.176719
H      -0.683041   -3.965446    1.187046
