17

O      -0.125627    0.027771    0.391519
C       0.021772    1.149948   -0.011123
C       1.379245    1.761055   -0.315275
O       1.169614    3.023867   -0.905581
C       2.337444    3.765356   -1.092320
C       3.208879    3.610148   -2.382636
C       2.056976    4.213781   -3.220016
C       2.232016    5.055781   -1.932944
O       3.700813    4.976792   -2.106360
H      -0.828773    1.844038   -0.189479
H       1.944139    1.844139    0.628416
H       1.941620    1.079565   -0.971694
H       2.926756    3.867934   -0.173201
H       3.949393    2.856157   -2.649246
H       2.369244    4.710066   -4.139164
H       1.140464    3.632017   -3.323726
H       1.805264    6.021138   -1.662478
