17

C       0.090842    1.543428    0.040561
C       0.062726    0.092490    0.028564
C       0.039168   -1.117902    0.020260
C       0.013457   -2.476037    0.010511
C      -0.016339   -3.687646    0.007035
C      -0.004452   -5.120847   -0.033164
O      -0.465767   -5.830668    1.133541
C      -1.247309   -5.931728   -0.053084
C      -2.624431   -5.326325   -0.030390
H       1.119311    1.920312    0.008512
H      -0.444026    1.957721   -0.821556
H      -0.381017    1.939125    0.947028
H       0.886482   -5.557821   -0.485171
H      -1.168942   -6.903177   -0.546297
H      -2.603889   -4.328296    0.412084
H      -3.023921   -5.253023   -1.047351
H      -3.302903   -5.955773    0.554470
