22

C      -0.465583    1.404978    0.123380
C       0.040989   -0.044194    0.091854
C       0.745871   -0.364475   -1.195549
C       0.067896   -0.876253   -2.405031
N       0.998385   -1.784496   -1.706004
C       2.365023   -1.345086   -2.159380
C       2.162927    0.069317   -1.542729
O       2.238848    1.209662   -2.360583
C       3.563722    1.590796   -2.660762
H       0.355413    2.112398   -0.030707
H      -1.201069    1.580222   -0.668199
H      -0.937235    1.635529    1.083232
H       0.723358   -0.218463    0.933946
H      -0.794138   -0.742120    0.221216
H      -0.971957   -1.169545   -2.294201
H       0.334858   -0.497605   -3.388758
H       3.139420   -1.943183   -1.675047
H       2.499735   -1.378998   -3.245785
H       2.781248    0.206639   -0.642509
H       4.137120    1.820139   -1.748714
H       4.102104    0.808173   -3.216453
H       3.512033    2.488841   -3.280690
