25

C      -0.296192    0.989941   -1.735561
C      -0.090416   -0.153993   -0.764205
C       1.279665   -0.629524   -0.315763
C       2.572685   -0.011992   -0.807095
C       0.343329    0.034178    0.682400
C       0.662245    1.421733    1.214941
C      -0.303608   -0.889602    1.707100
C      -1.687884   -0.443858    2.171482
O      -2.197178   -1.455456    3.030590
H       0.430603    1.795123   -1.607002
H      -0.215365    0.640608   -2.771307
H      -1.292824    1.429995   -1.615333
H      -0.815325   -0.953380   -0.907876
H       1.360860   -1.707674   -0.191665
H       2.496536    1.063773   -0.979730
H       3.383455   -0.171550   -0.087084
H       2.880506   -0.469675   -1.754105
H       1.220644    2.033160    0.504239
H      -0.248586    1.975276    1.468955
H       1.266753    1.351073    2.127273
H      -0.409214   -1.894936    1.283320
H       0.343295   -0.989991    2.588683
H      -1.626275    0.521497    2.696827
H      -2.340908   -0.298016    1.295499
H      -3.057249   -1.170464    3.352232
