18

C      -0.056860    1.579885   -0.031586
C       0.049286    0.069782    0.054579
C       1.311157   -0.696615   -0.250883
O       2.536667   -0.005442   -0.139360
C       2.945583    0.062527    1.211063
C       2.307157    1.082278    2.116549
C       1.789868   -0.346230    2.086798
C       0.707119   -0.797586    1.131785
H       0.922154    2.043388   -0.168393
H      -0.664834    1.849749   -0.901263
H      -0.534434    2.019585    0.849961
H      -0.834434   -0.434053   -0.333664
H       1.335886   -1.492902   -0.989273
H       3.976148   -0.243443    1.362289
H       2.879820    1.359593    2.996538
H       1.720653    1.885288    1.698301
H       1.936813   -0.961289    2.966690
H       0.154968   -1.679840    1.434327
