17

C      -0.041589   -1.272716   -0.037404
C       0.008242   -0.072446    0.025315
C       0.043334    1.377556    0.084063
C      -0.243596    2.127886    1.385703
C       1.009005    2.268313    2.290621
C       2.176388    1.372844    2.052564
C       2.473269    1.365265    0.749076
C       1.435562    2.172421    0.007970
C       0.832150    3.139961    1.078195
H      -0.080552   -2.332629   -0.084762
H      -0.608401    1.793590   -0.690746
H      -1.230421    2.274641    1.807953
H       0.800802    2.673317    3.274252
H       2.657089    0.792789    2.830022
H       3.213714    0.746999    0.258426
H       1.699475    2.545802   -0.979614
H       0.805825    4.222368    1.060837
