15

N      -0.318057   -1.175143   -0.358882
C      -0.166763   -0.044504   -0.177732
C       0.013049    1.390609    0.052430
C      -0.604233    1.872795    1.372580
O      -0.024662    1.283725    2.531237
C       0.454084    2.571618    2.115775
C       1.719714    2.526708    1.295757
C       2.316536    1.187008    1.056046
N       1.445936    1.792418    0.035633
H      -0.478211    1.927402   -0.769011
H      -1.665869    2.102657    1.423119
H       0.264772    3.392138    2.800667
H       2.300636    3.440040    1.213332
H       3.354067    1.104384    0.747073
H       1.934292    0.365021    1.651027
