21

C      -0.171055    1.395835   -0.172111
C       1.253193    1.003921    0.132103
C       0.185948   -0.053323    0.049978
C      -0.282597   -0.758770    1.295080
C      -1.694274   -1.347700    1.156573
C      -1.988405   -2.292429    2.291447
C      -1.017600   -2.770404    3.065106
C       0.426691   -2.432266    2.821099
O       0.653725   -1.795919    1.579526
H      -0.731690    1.906022    0.604768
H      -0.419881    1.715301   -1.177795
H       1.985240    1.055394   -0.665849
H       1.648418    1.245174    1.113138
H       0.203235   -0.691026   -0.829885
H      -0.287348   -0.038839    2.133501
H      -2.428443   -0.532621    1.135415
H      -1.785931   -1.865903    0.191334
H      -3.024614   -2.568239    2.468962
H      -1.230725   -3.424516    3.906526
H       0.810572   -1.809592    3.651951
H       1.036125   -3.344512    2.809506
