17

C       0.004203    1.442477    0.129147
N      -0.004189    0.004252    0.065066
C      -1.091549   -0.972079    0.000484
C      -0.002963   -2.086880   -0.010882
C       0.046624   -2.980664   -1.256244
C       1.160478   -3.927824   -1.232625
N       2.021159   -4.697687   -1.209461
C       1.015772   -0.914360    0.036792
O       2.212015   -0.800398    0.035431
H       1.047675    1.765228    0.152701
H      -0.484219    1.886922   -0.746500
H      -0.500259    1.807877    1.031810
H      -1.753213   -0.970292    0.873698
H      -1.697014   -0.904899   -0.912133
H       0.011631   -2.692157    0.898012
H      -0.883691   -3.554816   -1.340311
H       0.124924   -2.366738   -2.161141
