21

C       0.132888    1.486769   -0.179299
C       0.014464   -0.005384    0.017902
C      -1.388246   -0.588292   -0.178557
C      -1.247691   -2.131668   -0.219836
C      -0.037827   -2.530860    0.634739
C      -0.063198   -1.753700    1.985000
C       0.728413   -0.641872    1.275170
C       1.196396   -1.634386    0.199879
O       0.905613   -0.752008   -0.888115
H       1.164758    1.817180   -0.030933
H      -0.174208    1.764846   -1.192884
H      -0.509187    2.018034    0.531882
H      -2.042666   -0.264246    0.638745
H      -1.825042   -0.209352   -1.108303
H      -2.156725   -2.621796    0.143967
H      -1.087693   -2.457897   -1.251134
H       0.112595   -3.611403    0.673741
H      -1.040304   -1.523701    2.421138
H       0.556002   -2.232095    2.749473
H       1.388701    0.033082    1.822066
H       2.178552   -2.106327    0.133673
