21

C      -0.081294    1.541190    0.061544
C      -0.021308    0.030376    0.101899
C       1.273792   -0.694601   -0.199596
C       0.717545   -0.697799    1.191398
C       1.338758   -0.138524    2.457242
C       0.258943    0.068190    3.480867
C       0.782192   -1.327721    3.256219
C       0.226655   -1.945486    1.967480
O      -1.125954   -2.329580    1.894437
H       0.837249    1.983092    0.461405
H      -0.206500    1.905745   -0.964110
H      -0.917115    1.928163    0.655216
H      -0.922009   -0.475786   -0.239650
H       1.237712   -1.617779   -0.770536
H       2.154185   -0.086917   -0.390746
H       2.318505    0.315194    2.538813
H       0.566893    0.519585    4.418678
H      -0.740445    0.360875    3.164221
H       1.253502   -1.882899    4.057967
H       0.796158   -2.833884    1.678770
H      -1.657277   -1.601640    2.234568
