19

C      -0.120404    1.598617   -0.106964
C       0.007075    0.076239   -0.005246
C       0.669250   -0.534920   -1.242501
C       0.825955   -2.072736   -1.164977
C      -0.465071   -2.756960   -1.126995
N      -1.477504   -3.316777   -1.137918
C       1.754706   -2.576443   -2.304748
N       1.304103   -3.625389   -3.032728
O       2.826313   -2.036342   -2.483708
H       0.860467    2.071630   -0.224701
H      -0.733439    1.887520   -0.967546
H      -0.587914    2.015891    0.789656
H       0.594664   -0.185972    0.884596
H      -0.985613   -0.367440    0.140031
H       0.094820   -0.282198   -2.141686
H       1.677300   -0.135469   -1.383012
H       1.357484   -2.316579   -0.235714
H       0.399137   -4.038865   -2.882830
H       1.889314   -3.971070   -3.775611
