21

C      -0.040701    1.600889    0.011225
C      -0.185271    0.076288   -0.078451
C       0.634829   -0.512799   -1.216742
C       2.179168   -0.751060   -1.120805
C       1.898450   -1.981219   -0.211667
C       0.844618   -2.068048   -1.368229
C       2.024443   -1.712257   -2.333046
C      -0.172703   -3.062049   -1.555066
C      -1.036891   -3.885773   -1.707657
H       0.995215    1.890265    0.218274
H      -0.336759    2.083220   -0.926941
H      -0.667325    2.011558    0.808803
H       0.083501   -0.370427    0.883894
H      -1.238702   -0.181707   -0.247747
H       0.333777   -0.042546   -2.161563
H       2.954954    0.001768   -0.982744
H       2.658739   -2.766466   -0.208727
H       1.520165   -1.802971    0.794989
H       1.744953   -1.265071   -3.290566
H       2.791182   -2.481628   -2.452092
H      -1.796402   -4.615018   -1.844162
