14

O       0.087661    0.032510    0.212761
C      -0.021138    1.204391    0.027468
C      -1.274089    2.068090    0.082860
C      -0.766746    3.505857   -0.007591
N      -0.682003    4.169431    1.304909
C       0.542234    4.441282    1.478892
O       1.449935    4.104860    0.520125
C       0.719226    3.349321   -0.445322
O       1.056285    1.983020   -0.331227
H      -1.913009    1.792942   -0.761646
H      -1.829559    1.874433    1.000857
H      -1.354872    4.124358   -0.688870
H       0.965676    4.943550    2.340652
H       1.006428    3.700900   -1.436199
