12

O      -0.165709    0.017672   -0.215536
C      -0.117716    1.190583    0.084504
C       1.106235    1.971389    0.024030
C       2.131000    2.595138   -0.058816
N      -1.202127    1.902589    0.585556
C      -1.795649    3.065796   -0.048416
C      -2.537229    1.763626    0.053661
H       3.042720    3.136683   -0.130998
H      -2.046218    3.889566    0.613482
H      -1.415260    3.356032   -1.024311
H      -2.647296    1.163055   -0.845044
H      -3.329776    1.651897    0.787525
