15

C       0.027615   -1.215921   -0.089160
C       0.037634   -0.016246    0.004491
C       0.018689    1.410189    0.107353
N       0.354161    2.241229   -1.101783
C       1.254898    2.265576    0.059925
C       1.036843    3.452881    0.990574
C      -0.383279    3.252148    1.481531
C      -0.929322    2.126358    1.021199
H       0.026102   -2.274908   -0.165832
H       0.755291    1.619511   -1.803387
H       2.236567    1.814060   -0.030091
H       1.757510    3.451981    1.818335
H       1.156652    4.404568    0.459329
H      -0.886420    3.977009    2.111093
H      -1.926374    1.759122    1.226641
