14

O       0.078101    1.305155    0.237908
C       0.068400   -0.031317   -0.000067
C       0.081107   -0.780124   -1.152263
C       0.058782   -2.156683   -0.720271
C       0.034457   -2.127537    0.649701
N       0.039585   -0.845135    1.124897
O       0.011311   -3.332813    1.238834
C       0.021591   -4.217053    0.164120
C       0.049651   -3.562930   -1.030646
H       0.099466    1.760911   -0.608922
H       0.103203   -0.387707   -2.156728
H       0.025596   -0.517352    2.074078
H       0.005841   -5.256814    0.441138
H       0.062004   -4.039626   -1.998702
