23

C       0.003217    1.587822    0.017176
C       0.083406    0.069620   -0.006562
C       1.144295   -0.618052   -0.911904
C       1.386558   -1.656489    0.215882
C       0.758848   -3.091148    0.121485
C       2.129251   -3.691778    0.453981
C       3.144883   -3.245708   -0.558553
C       2.739381   -2.290939    0.532575
C       0.713895   -0.671953    1.205972
H       0.984895    2.028614    0.226834
H      -0.340495    1.984685   -0.944907
H      -0.691095    1.939892    0.788788
H      -0.906824   -0.349882   -0.218153
H       0.820187   -0.991258   -1.887571
H       2.021101    0.023488   -1.057752
H       0.010039   -3.261865    0.899547
H       0.332137   -3.382267   -0.845550
H       2.301764   -4.545852    1.097509
H       4.134660   -3.678120   -0.450059
H       2.851126   -3.061381   -1.589906
H       3.459178   -1.893042    1.239821
H       1.459997   -0.042843    1.706440
H       0.045672   -1.088379    1.965801
