19

O      -0.044992    1.275408    0.360735
C      -0.080303   -0.136549    0.200052
C      -1.532662   -0.542514   -0.038445
N      -2.073362   -0.057790   -1.282746
C      -2.442899    1.289584   -1.732053
C      -2.591549    0.691430   -3.156879
O      -1.779406    1.335474   -4.107674
C      -2.040049   -0.615246   -2.536133
N      -1.638187   -1.765982   -2.896845
H       0.874228    1.556697    0.373948
H       0.528851   -0.462140   -0.655040
H       0.292144   -0.651934    1.100151
H      -1.600875   -1.634736   -0.056342
H      -2.146935   -0.172431    0.791339
H      -3.352268    1.687009   -1.268475
H      -1.633790    2.020763   -1.665188
H      -3.633785    0.605707   -3.494098
H      -1.708937    0.762226   -4.878189
H      -1.772196   -1.902550   -3.897419
