19

C       0.002171    1.477434   -0.157347
N       0.019086    0.036498    0.054313
C       1.278394   -0.645821   -0.194563
C       0.755551   -0.492220    1.207786
C       1.403009    0.413575    2.221344
C       2.181944   -0.201540    3.378143
C       2.903084    0.602035    2.337471
O       3.814267    0.019503    1.454631
H       0.949345    1.982893    0.086478
H      -0.226445    1.670631   -1.209930
H      -0.793945    1.924512    0.447253
H       1.209008   -1.601846   -0.708634
H       2.136382   -0.035557   -0.468042
H       0.256355   -1.357520    1.642648
H       0.805401    1.283609    2.482601
H       2.049781    0.198854    4.377586
H       2.327161   -1.278637    3.348421
H       3.258111    1.590616    2.609589
H       3.460705   -0.829795    1.169735
