17

O      -0.672555    0.878193   -0.541807
C       0.221290    0.983172    0.260247
C       1.365364    1.959871    0.134515
C       1.347157    2.904336   -1.079717
C       2.409690    3.964143   -0.667543
C       1.349757    4.333275    0.424736
C       0.282138    3.960577   -0.660703
C       1.348488    3.059587    1.250541
O       1.334013    2.900842    2.438779
H       0.258096    0.352187    1.174155
H       2.299892    1.392439    0.243137
H       1.337349    2.442775   -2.064627
H       3.394896    3.621018   -0.338391
H       2.514504    4.761622   -1.405874
H       1.351097    5.270660    0.976184
H       0.175284    4.758327   -1.398117
H      -0.698559    3.610016   -0.336001
