15

O       0.045112   -0.043781   -0.165616
C      -0.026564    1.139244    0.016476
C      -1.270288    1.984459    0.259677
C      -0.762700    3.333401    0.767067
O      -0.508607    3.316655    2.191018
C       0.877914    3.660768    2.000709
C       0.756221    3.466140    0.467472
C       1.213460    2.096964    0.006873
O       2.319994    1.759106   -0.314408
H      -1.796209    2.097377   -0.697957
H      -1.958212    1.507802    0.962037
H      -1.399460    4.177007    0.482957
H       1.090285    4.696377    2.292393
H       1.555967    2.987156    2.535211
H       1.127113    4.270274   -0.167010
