19

C       0.128152    1.504761   -0.046924
C       0.012849   -0.022193   -0.029290
C      -1.431929   -0.530291    0.049957
C      -2.328475   -0.165664   -1.162394
C      -3.293075   -1.345822   -1.338050
O      -4.399368   -1.312181   -1.811184
C      -2.632097   -2.551572   -0.718237
O      -1.258929   -2.672333   -1.144131
C      -1.520257   -2.051808    0.111873
H       1.175586    1.818573   -0.081947
H      -0.375312    1.936677   -0.917992
H      -0.322205    1.946556    0.849179
H       0.480789   -0.445946   -0.926250
H       0.573460   -0.418929    0.827236
H      -1.897562   -0.137905    0.964824
H      -2.891294    0.760624   -1.039012
H      -1.731288   -0.071270   -2.076614
H      -3.176143   -3.474809   -0.548496
H      -1.170587   -2.597074    0.985738
