20

C      -0.059995    1.593453   -0.022588
C       0.042963    0.067042    0.024220
C       0.788159   -0.556033   -1.183531
C       1.537666   -1.786493   -0.627074
C       1.662041   -1.495742    0.850962
C       2.548349   -2.295093    1.746194
C       0.844555   -0.484972    1.199199
C       0.676341    0.001561    2.523220
N       0.520701    0.419134    3.593833
H       0.933998    2.050463   -0.077336
H      -0.629024    1.913096   -0.901452
H      -0.563114    1.986238    0.866081
H      -0.976642   -0.341323    0.084436
H       0.115035   -0.801162   -2.008667
H       1.515366    0.171099   -1.561553
H       0.968882   -2.717047   -0.770266
H       2.511285   -1.950058   -1.102942
H       3.592783   -2.227135    1.417314
H       2.488094   -1.962120    2.784656
H       2.279414   -3.358217    1.705725
