21

C      -0.017465    1.462526    0.068239
C      -0.028620   -0.046872   -0.048508
C       0.940376   -0.605567   -1.094242
C       1.156025   -2.111339   -0.879510
C      -0.164321   -2.896966   -0.758307
C      -1.242568   -2.180877    0.038183
C      -1.035848   -1.292296    1.241249
O       0.241140   -0.660321    1.267968
C      -1.432006   -0.684890   -0.078019
H       0.973741    1.811533    0.374521
H      -0.262034    1.923312   -0.895621
H      -0.747420    1.799651    0.809596
H       0.527175   -0.398930   -2.090577
H       1.902652   -0.083014   -1.034359
H       1.754010   -2.525824   -1.698194
H       1.734519   -2.238524    0.038644
H      -0.571565   -3.082868   -1.761905
H       0.035964   -3.883349   -0.322859
H      -2.188884   -2.716814    0.096678
H      -1.560757   -1.400730    2.184112
H      -2.338007   -0.189184   -0.402803
