17

O       0.159329    1.556732    0.092365
C       0.050299    0.158448    0.079050
C       0.657315   -0.398526   -1.207771
O       1.133643    0.325983   -2.045202
C       0.729174   -0.466401    1.265648
C       0.328769   -1.494652    2.007914
C       1.360724   -1.799431    3.055998
O       2.401124   -0.849427    2.844754
C       2.068621    0.016990    1.764564
H       0.555122    1.796435   -0.761565
H      -1.008775   -0.156937    0.070536
H       0.630787   -1.500370   -1.318231
H      -0.599865   -2.043572    1.909287
H       0.958568   -1.699280    4.076989
H       1.762218   -2.821654    2.967739
H       2.850333   -0.032310    0.988853
H       2.020251    1.059410    2.108104
