17

O       0.001069   -0.040356    0.003986
C      -0.010529    1.163995    0.011198
C      -1.269565    2.030133    0.031420
C      -0.812886    3.496026    0.032086
O      -0.047972    3.763718    1.189909
C       1.142248    2.967087    1.241356
C       1.220885    2.060167   -0.002131
C       1.108206    2.978099   -1.234933
O      -0.079875    3.774344   -1.143689
H      -1.885190    1.809775   -0.846699
H      -1.862106    1.801712    0.923239
H      -1.645766    4.200156    0.046651
H       2.011467    3.637126    1.265362
H       1.139872    2.378521    2.167203
H       2.137599    1.468368   -0.017389
H       1.976610    3.648309   -1.276979
H       1.080153    2.397790   -2.165557
