15

O       0.179770    1.372042    0.322052
C       0.085594   -0.009818    0.044563
C      -1.405388   -0.497832   -0.163774
N      -1.382911   -1.542246   -1.223631
C      -0.200127   -1.332988   -1.914412
N       0.339938   -1.772915   -3.040985
N       1.559148   -1.182893   -2.984919
N       1.821502   -0.413875   -1.929647
C       0.692071   -0.497633   -1.236010
H       0.060503    1.846659   -0.508310
H       0.525704   -0.502944    0.918133
H      -1.840062   -0.894419    0.756369
H      -1.992135    0.379331   -0.470768
H      -2.228389   -1.637482   -1.769212
H       2.220016   -1.288026   -3.736148
