21

C      -0.618270    1.668693   -0.161625
C      -0.012824    0.336945    0.247157
O       1.104868    0.257438    0.706039
C      -0.874720   -0.886548    0.008586
C      -0.764076   -1.495724   -1.440358
C      -0.601454   -2.874361   -0.787697
C      -1.457869   -4.073632   -1.073511
C       0.028205   -4.104676   -1.361954
C      -0.384620   -2.238346    0.590854
H       0.131017    2.458492   -0.096230
H      -1.022212    1.616897   -1.178741
H      -1.458631    1.909462    0.500370
H      -1.917990   -0.665492    0.250973
H      -1.627245   -1.349213   -2.094826
H       0.138770   -1.160378   -1.961288
H      -1.827500   -4.650308   -0.231083
H      -2.140160   -4.030608   -1.917157
H       0.346636   -4.082492   -2.399718
H       0.663330   -4.702066   -0.715326
H       0.667351   -2.171153    0.880708
H      -0.963831   -2.647679    1.422575
