20

C      -0.039409    1.557324   -0.025351
C      -0.005382    0.026894   -0.031788
C       0.739547   -0.557391   -1.227311
C       0.812908   -2.079104   -1.231151
C       1.566574   -2.533067   -2.477094
N       1.074151   -1.793300   -3.627050
C       0.315037   -0.653226   -3.623039
O      -0.123691   -0.146877   -4.626205
O       0.048570   -0.103086   -2.408315
H       0.972495    1.974774    0.023585
H      -0.516218    1.936666   -0.931962
H      -0.596063    1.930060    0.839244
H       0.478810   -0.344759    0.879797
H      -1.026717   -0.372876   -0.035203
H       1.760431   -0.144569   -1.255745
H       1.322263   -2.438877   -0.332544
H      -0.205121   -2.484682   -1.229752
H       2.645497   -2.366445   -2.340743
H       1.425465   -3.606259   -2.647607
H       1.248555   -2.145840   -4.553696
