16

C      -0.042525    1.597319    0.025299
C       0.085613    0.085827   -0.051035
C       0.808114   -0.624102   -1.186898
C       2.293498   -0.701568   -0.768515
C       2.377925   -0.045325    0.597319
N       1.017307   -0.628119    0.930781
C       1.277728   -1.649834   -0.203084
H       0.868807    2.117103   -0.279565
H      -0.848927    1.934207   -0.634928
H      -0.294128    1.905657    1.046070
H      -0.898881   -0.369622    0.101725
H       0.511298   -0.772689   -2.218404
H       3.068407   -0.906153   -1.497187
H       3.122911   -0.523730    1.238799
H       2.464220    1.041405    0.693857
H       1.193686   -2.723607   -0.119455
