15

C      -0.077702    1.385069    0.022725
O       0.007928   -0.038529   -0.018905
C       0.636862   -0.579171   -1.081609
N       1.145442    0.191904   -2.033422
C       1.753415   -0.413874   -3.054374
C       1.846895   -1.803572   -3.112163
O       2.467892   -2.393993   -4.157152
N       1.337232   -2.579069   -2.158112
C       0.731811   -1.976550   -1.141381
H       0.917172    1.840138    0.036220
H      -0.624532    1.773082   -0.841838
H      -0.612645    1.617693    0.944212
H       2.173859    0.206151   -3.839896
H       2.419690   -3.346501   -3.999673
H       0.310360   -2.594038   -0.354278
