17

N      -0.067063    1.311701    0.315180
C      -0.009860    0.087058   -0.006351
C      -1.276747   -0.737231   -0.081685
C      -1.456867   -1.520096   -1.394015
C      -0.671468   -2.835638   -1.397232
O       0.584215   -2.745188   -0.723100
C       1.363322   -1.649165   -1.060068
O       1.202214   -0.523820   -0.197414
H       0.876175    1.706235    0.338488
H      -1.286853   -1.435974    0.763838
H      -2.095521   -0.031356    0.060867
H      -2.516635   -1.754525   -1.540282
H      -1.169090   -0.888966   -2.242283
H      -1.219536   -3.607257   -0.848670
H      -0.521360   -3.198107   -2.424689
H       2.409593   -1.929969   -0.923144
H       1.195531   -1.337984   -2.101987
