18

C       0.026222    1.553358   -0.029713
C       0.041954    0.036352    0.063146
C      -1.135545   -0.619166   -0.442467
N      -2.086729   -1.159050   -0.823995
C       1.313855   -0.799387   -0.145602
N       2.462625    0.009535    0.296542
C       1.947953   -0.078700    1.708569
C       0.681499   -0.794062    1.219193
N       0.043327   -1.815730    1.977419
H       1.026821    1.944061    0.161487
H      -0.272273    1.871961   -1.032776
H      -0.677808    1.987361    0.686555
H       1.386371   -1.556430   -0.918002
H       3.328698   -0.508762    0.196966
H       2.534067   -0.754809    2.335881
H       1.842115    0.889893    2.207100
H      -0.608956   -1.411676    2.646094
H      -0.506099   -2.420960    1.374145
