17

O       0.920087    0.202831   -0.730331
C       0.056905   -0.452505    0.156863
C       0.071701   -0.082953    1.662619
C      -1.484031   -0.225123    1.686864
C      -1.461239   -0.135055    0.105660
C      -1.940732   -1.624863    2.093322
O      -1.203289   -2.564035    2.234767
C      -2.264591    0.774527    2.385970
C      -2.924512    1.588136    2.977226
H       0.808190    1.152977   -0.616791
H       0.240392   -1.520207    0.019390
H       0.621526   -0.735985    2.340519
H       0.364388    0.958406    1.820551
H      -1.652218    0.894982   -0.207474
H      -2.121358   -0.806697   -0.448451
H      -3.040245   -1.718600    2.223057
H      -3.498892    2.314638    3.497155
