16

C      -0.018436    1.534087    0.036806
C      -0.000805    0.017618    0.059659
O       0.025100   -0.608894    1.095567
N      -0.010107   -0.654535   -1.170984
C      -0.001316   -2.118222   -1.141297
C      -1.349177   -2.687703   -1.258406
N      -2.406184   -3.145511   -1.338686
C      -0.030879   -0.032508   -2.415317
N      -0.028371   -0.715456   -3.485326
H       0.855105    1.943072   -0.479568
H      -0.916221    1.920027   -0.455379
H      -0.008684    1.868662    1.073260
H       0.606109   -2.476198   -1.974563
H       0.432486   -2.424527   -0.188737
H      -0.046077    1.055634   -2.356895
H      -0.040964   -0.108520   -4.301667
