14

C      -0.010705    1.462540    0.088885
C      -0.007466   -0.019583   -0.080475
N      -0.103561   -0.608012   -1.212535
C      -0.088208   -1.988343   -1.235393
C       0.024502   -2.722452   -0.102745
O       0.045323   -4.066719   -0.057222
C       0.133297   -2.042924    1.178645
O       0.237508   -2.611938    2.239571
O       0.110605   -0.670414    1.117625
H       0.914200    1.794929    0.571341
H      -0.106323    1.935465   -0.887489
H      -0.840652    1.772477    0.732221
H      -0.171176   -2.460841   -2.207862
H       0.134325   -4.297489    0.882527
