14

O       0.014356    0.003720   -0.214956
C      -0.047123    1.179895    0.012052
C      -1.300652    2.021300    0.248414
C      -0.800564    3.365014    0.763911
C       0.033881    3.326795    1.997439
C       0.722915    3.425980    0.633919
C       1.191905    2.136840    0.068362
O       2.284071    1.845846   -0.343812
H      -1.809468    2.134289   -0.717247
H      -1.995969    1.513212    0.923276
H      -1.383116    4.253480    0.552601
H       0.096817    4.218832    2.609707
H       0.112002    2.398204    2.555570
H       1.261869    4.332946    0.393504
