15

N       1.162683   -0.750771    0.033072
C       0.025606    0.035553    0.125195
O       0.045415    1.198357    0.438940
N      -1.157763   -0.692089   -0.112283
C      -1.247966   -2.142451   -0.207263
C      -2.761311   -2.349008   -0.039135
O      -3.342591   -1.093943   -0.394676
C      -2.412776   -0.092780   -0.321595
O      -2.680670    1.058735   -0.453087
H       2.009255   -0.202821    0.070039
H       1.184200   -1.513029   -0.626701
H      -0.898607   -2.507530   -1.183410
H      -0.668290   -2.632547    0.577822
H      -3.165820   -3.120592   -0.695922
H      -3.023917   -2.584692    0.998106
