18

O      -0.021618    1.391313   -0.071438
C      -0.015783    0.006979   -0.026826
C      -0.423931   -0.755571   -1.281447
C      -1.332545   -0.748596   -0.081375
C      -1.486652   -2.023265    0.765628
N      -0.437319   -2.266589    1.758370
C       0.910225   -2.021281    1.231935
C       1.061719   -0.562124    0.826386
O       1.937782    0.169955    1.252035
H       0.810447    1.647297    0.359583
H      -0.684658   -0.121692   -2.121203
H       0.094538   -1.673898   -1.539486
H      -2.204495   -0.106297   -0.158430
H      -2.441968   -1.995704    1.296872
H      -1.522522   -2.893174    0.095982
H      -0.585815   -1.664452    2.562809
H       1.663076   -2.247768    1.990694
H       1.078776   -2.689963    0.377975
