20

C       0.064018    1.528475    0.113846
C      -0.054693    0.006494   -0.086102
C       0.722498   -0.504346   -1.260860
N       0.133646   -0.749691   -2.430964
N       1.120024   -1.168913   -3.236252
C       2.338753   -1.197153   -2.624120
C       2.119741   -0.771249   -1.326947
N       3.031239   -0.680822   -0.269876
C       4.439773   -0.803819   -0.597841
H       1.104838    1.838628    0.262276
H      -0.313724    2.062046   -0.763242
H      -0.507802    1.855778    0.988140
H       0.283889   -0.508751    0.821911
H      -1.106298   -0.259431   -0.229669
H       0.901163   -1.438013   -4.178903
H       3.228992   -1.515640   -3.140074
H       2.843518    0.109419    0.330962
H       4.642704   -1.813669   -0.972329
H       4.781851   -0.086979   -1.363675
H       5.036189   -0.658867    0.306197
