17

N      -0.051109    1.231396   -0.584468
C      -0.125877   -0.046900   -0.108486
N      -1.192340   -0.753332   -0.036016
C      -0.849584   -2.053482    0.557517
C       0.672955   -2.129899    0.538992
C       1.527007   -3.236523    0.956138
O       1.294346   -2.980022   -0.441743
C       1.142999   -0.677784    0.460693
O       2.309051   -0.486519   -0.304706
H       0.856944    1.493461   -0.939839
H      -0.835712    1.539426   -1.139932
H      -1.241408   -2.126393    1.581852
H      -1.288747   -2.874182   -0.019510
H       2.540888   -3.034249    1.298417
H       1.081310   -4.156201    1.331363
H       1.331880   -0.265492    1.461244
H       2.352666   -1.251771   -0.898855
