17

C      -0.181811    1.489891    0.048868
C       0.046158   -0.005102    0.128218
O       0.141498   -0.593933    1.178509
C       0.177423   -0.736740   -1.211853
C      -0.147610   -2.216272   -1.112277
O      -1.565450   -2.516418   -1.209339
C      -1.405169   -3.410075   -2.329545
C       0.092940   -3.083946   -2.354399
O       1.027328   -3.343088   -3.048673
H       0.536590    1.957934   -0.633170
H      -1.180358    1.683378   -0.360933
H      -0.104623    1.935139    1.041205
H      -0.438561   -0.256937   -1.979342
H       1.223291   -0.627557   -1.534295
H       0.285154   -2.626189   -0.190386
H      -1.646917   -4.453046   -2.087057
H      -1.976192   -3.101155   -3.214033
