19

C      -0.516840    1.250832    0.085345
C       0.068276   -0.157287    0.015781
C       1.088189   -0.374335   -1.136460
O       2.240322   -1.008800   -0.565873
C       1.806821   -1.648599    0.623691
C       0.889062   -0.588929    1.265772
O       1.657643    0.462870    1.824288
C       0.035812   -1.153392    2.384230
O      -0.830467   -1.973288    2.214265
H       0.263708    1.992472    0.274510
H      -1.015657    1.506112   -0.855030
H      -1.258100    1.333411    0.886163
H      -0.743346   -0.885229   -0.078943
H       0.664345   -1.005525   -1.928828
H       1.421196    0.565335   -1.588823
H       1.242764   -2.570683    0.420056
H       2.684389   -1.878773    1.232557
H       2.388663    0.630118    1.217048
H       0.293849   -0.756404    3.389073
