22

C       0.015024    1.430488   -0.355547
C       0.078445    0.017478    0.221273
O       0.587267    0.010612    1.554636
C      -1.280461   -0.662113    0.190869
N      -1.760661   -1.215779   -1.089056
C      -1.483093   -2.124613    0.041244
C      -0.359691   -3.135158   -0.207620
C      -0.932460   -4.532817   -0.466122
O       0.460400   -2.723874   -1.288755
H       0.999365    1.904044   -0.309760
H      -0.317401    1.408123   -1.397801
H      -0.691427    2.053804    0.209335
H       0.782569   -0.586798   -0.354276
H       0.054563    0.621130    2.076571
H      -2.027740   -0.147671    0.799882
H      -2.754947   -1.061748   -1.220766
H      -2.342152   -2.539913    0.565234
H       0.282363   -3.168924    0.682074
H      -1.612575   -4.517319   -1.325183
H      -0.120518   -5.230231   -0.686734
H      -1.483737   -4.905431    0.404750
H      -0.122930   -2.203777   -1.864314
