16

C      -0.026557    1.504388   -0.088117
C      -0.073923    0.015526    0.106283
O       0.346849   -0.710747   -1.147149
C      -0.751859   -1.566487   -0.987861
C      -0.877016   -2.123149    0.488915
C       0.302494   -1.896136    1.353399
C       0.743945   -0.640087    1.192942
C      -1.422690   -0.776936    0.071558
H       1.000403    1.829273   -0.283220
H      -0.649272    1.807812   -0.933683
H      -0.382392    2.013172    0.813992
H      -1.091296   -2.130550   -1.847999
H      -1.551096   -2.960564    0.622504
H       0.779393   -2.673571    1.937607
H       1.648245   -0.207836    1.601840
H      -2.430516   -0.405770    0.210229
