19

C       0.005040    1.736928   -0.056237
C       0.046295    0.208769   -0.046935
O       0.739164   -0.193131    1.127181
C      -1.381160   -0.400931   -0.050441
C      -2.187224   -0.026135    1.174784
O      -3.309539    0.412165    1.140067
C       0.795153   -0.312967   -1.272385
C       2.252387   -0.461189   -1.276663
O       1.393199   -1.601896   -1.090504
H       1.020007    2.141576   -0.042329
H      -0.511746    2.107443   -0.946627
H      -0.524800    2.111246    0.824086
H       1.018599   -1.106712    0.967260
H      -1.942799   -0.106714   -0.942214
H      -1.277096   -1.495603   -0.059150
H      -1.660273   -0.193309    2.137588
H       0.280753   -0.186909   -2.225347
H       2.793031   -0.444875   -2.220442
H       2.816854   -0.166909   -0.395885
