19

C      -0.005346    1.680643   -0.087419
C       0.047763    0.158691   -0.052601
C      -1.366443   -0.479651   -0.019350
C      -2.145553   -0.130139    1.160046
C      -2.796671    0.166846    2.125549
C       0.876278   -0.464969   -1.194216
O       1.430448   -1.623989   -0.593604
C       1.745598   -1.218251    0.715404
O       0.774655   -0.266956    1.111085
H       1.005391    2.095528   -0.052506
H      -0.495511    2.030134   -1.002655
H      -0.568339    2.059830    0.768455
H      -1.911614   -0.175077   -0.922607
H      -1.241406   -1.567377   -0.074844
H      -3.367094    0.420760    2.984170
H       0.283929   -0.773139   -2.058362
H       1.665553    0.228334   -1.524023
H       1.712136   -2.094870    1.371092
H       2.748562   -0.756871    0.754668
