13

C      -0.005692    1.439959    0.033607
N      -0.005875   -0.010628   -0.014623
C       0.545249   -0.666418    0.902065
O       1.172865    0.035758    1.994179
C       1.750238   -0.680914    2.955122
N       1.811744   -1.958509    3.018370
C       1.194549   -2.596817    1.945581
N       0.598881   -2.044066    0.948375
H       1.012748    1.850198    0.037341
H      -0.529003    1.822979   -0.844647
H      -0.509768    1.820672    0.931659
H       2.190145   -0.050545    3.725345
H       1.233477   -3.683225    1.975820
