14

O       0.914633   -0.119133    0.523131
C       0.522705    0.775223   -0.178400
C       0.592143    2.248381    0.211228
N       0.651472    3.080032   -0.967202
C       1.594945    3.915095   -1.043673
N       1.798087    4.780422   -2.115632
C       1.056857    4.919316   -3.281676
O       0.077443    4.296767   -3.587215
H       0.058421    0.596129   -1.171761
H      -0.347099    2.461300    0.746168
H       1.418241    2.388941    0.926641
H       2.360458    4.051222   -0.265667
H       2.595359    5.392772   -2.034059
H       1.504234    5.710090   -3.918035
