18

C       0.267401    1.472418   -0.111727
C      -0.068037   -0.005788    0.150835
C       0.607023   -0.554113    1.360207
N       0.063216   -1.005815    2.452279
C       1.135077   -1.375044    3.239860
O       0.959543   -1.899662    4.471851
C       2.306533   -1.133275    2.599770
C       3.739733   -1.313028    2.926815
O       1.956704   -0.596529    1.370363
H       1.343878    1.609637   -0.244539
H      -0.236465    1.823207   -1.016845
H      -0.054417    2.100747    0.724008
H      -1.142660   -0.138721    0.296858
H       0.219126   -0.604545   -0.722554
H       0.007502   -1.934038    4.621499
H       4.241734   -1.988159    2.223413
H       4.286241   -0.362332    2.918674
H       3.823168   -1.743281    3.927713
