12

O      -0.052168   -0.059260    0.004249
C       0.016287    1.144138    0.008994
N      -1.179975    1.920594    0.029879
C      -1.161600    3.264896    0.035935
N      -0.068054    3.963221    0.023370
C       1.083895    3.199443    0.002935
N       1.177815    1.894770   -0.004397
C       2.301595    3.953151   -0.010712
C       3.319646    4.592274   -0.022086
H      -2.047920    1.401731    0.039993
H      -2.125194    3.769725    0.052265
H       4.223483    5.151160   -0.032244
