21

C      -0.213734    1.559293   -0.064276
C       0.007110    0.048472    0.077355
O      -1.222298   -0.651092    0.175944
C       0.815675   -0.514243   -1.063981
O       0.066639   -0.817692   -2.261165
C       0.836534   -1.867599   -1.637044
C       2.279998   -1.705614   -2.120944
C       2.274936   -0.253308   -1.507090
C       2.539332    0.920440   -2.439354
H       0.734749    2.105776   -0.033294
H      -0.710243    1.787416   -1.013191
H      -0.846843    1.914760    0.752542
H       0.544462   -0.149270    1.013868
H      -1.546084   -0.734282   -0.731335
H       0.296084   -2.760745   -1.347094
H       2.985139   -2.375199   -1.623219
H       2.412427   -1.773051   -3.203861
H       2.933312   -0.215089   -0.632738
H       1.835519    0.905534   -3.276188
H       2.435775    1.879444   -1.920845
H       3.554850    0.871581   -2.846375
