19

O       0.165224    1.571761    0.174352
C       0.111129    0.164889    0.088544
C       0.245026   -0.557971    1.462019
C      -1.305252   -0.571823    1.543729
O      -1.812448    0.636076    2.111965
C      -1.338850   -0.423017   -0.002665
C      -2.430708    0.371300   -0.655516
C      -2.806283    0.147620   -2.057101
O      -3.622661   -0.351876   -0.998564
H      -0.420301    1.825162    0.900667
H       0.807083   -0.121894   -0.702928
H       0.661246   -1.564807    1.364809
H       0.779954   -0.015782    2.246787
H      -1.799890   -1.445800    1.982090
H      -1.627552    0.622056    3.056955
H      -1.301969   -1.420223   -0.452145
H      -2.622766    1.353555   -0.231487
H      -3.234388    0.963498   -2.637817
H      -2.281936   -0.608607   -2.641028
