17

C      -0.031881    1.565762    0.299573
C       0.004822    0.097054    0.029334
C      -0.009989   -0.610654   -1.157377
C       0.042154   -1.966684   -0.757914
N       0.053131   -3.123339   -1.531172
C       0.014584   -3.223315   -2.895162
N      -0.038755   -2.220988   -3.684297
N       0.086346   -2.105923    0.565069
N       0.062114   -0.829361    1.018506
H       0.852325    1.900374    0.854306
H      -0.062251    2.115898   -0.642751
H      -0.915323    1.851237    0.882388
H      -0.051387   -0.235874   -2.163357
H       0.093755   -3.977468   -0.999098
H       0.035995   -4.273425   -3.210959
H      -0.058375   -2.542901   -4.648656
H       0.087793   -0.670461    2.010639
