16

C      -0.040454    1.516348   -0.011010
C       0.010187    0.014853   -0.004939
N      -0.007320   -0.609720   -1.182914
C       0.051763   -1.936951   -1.162501
O       0.037264   -2.541120   -2.366747
N       0.121925   -2.718980   -0.087883
C       0.128567   -2.087380    1.086623
C       0.077020   -0.701371    1.206342
N       0.162443   -0.050002    2.445884
H       0.791968    1.937491    0.564559
H       0.003983    1.880774   -1.037372
H      -0.967688    1.887000    0.446932
H       0.087422   -3.489148   -2.187491
H       0.182082   -2.714582    1.975885
H      -0.033532   -0.656184    3.231636
H      -0.395646    0.790618    2.510858
