18

C      -0.055905    1.522651   -0.260278
C      -0.017409    0.029965    0.101155
O       0.530561   -0.157412    1.378431
C      -1.426701   -0.586711    0.083369
O      -1.948554   -0.947506    1.129407
N      -2.028322   -0.694520   -1.126025
C      -3.393438   -1.186739   -1.276829
C      -4.200646   -0.317734   -2.126454
C      -4.847511    0.390822   -2.849201
H       0.950024    1.938358   -0.162992
H      -0.401927    1.691098   -1.285644
H      -0.718199    2.059725    0.425033
H       0.599852   -0.502307   -0.640308
H      -0.204842   -0.499018    1.915020
H      -1.551104   -0.363129   -1.948759
H      -3.391109   -2.205812   -1.686686
H      -3.808518   -1.251299   -0.266479
H      -5.433125    1.018726   -3.474523
