21

C      -0.220115    1.502430   -0.061928
C       0.062841    0.004121    0.048798
C       1.066655   -0.550643   -1.045763
C       2.210259   -1.162858   -0.188748
C       1.505592   -1.836311    1.007942
C       2.350774   -1.209578    2.157268
C       1.097503   -0.518282    2.783833
C       0.885406   -0.422364    1.253810
C       2.411709   -0.183084    0.986061
H       0.707555    2.083354   -0.011619
H      -0.711747    1.742469   -1.010629
H      -0.873333    1.844792    0.747897
H      -0.885284   -0.544529    0.003054
H       0.593813   -1.298401   -1.690917
H       1.430093    0.256251   -1.692134
H       3.041692   -1.624297   -0.726625
H       0.941906   -2.771543    1.040343
H       3.191657   -1.661624    2.684787
H       0.407350   -1.160259    3.341465
H       1.269183    0.419321    3.322676
H       2.902177    0.792606    0.995914
