19

C       0.038318    1.443940   -0.135242
N       0.371532    0.044476    0.112731
C       0.714074   -0.755174   -0.963373
C       0.555742   -2.086761   -1.212836
C       1.231251   -2.330508   -2.462105
N       1.247195   -3.570387   -3.126074
C       1.740345   -1.140087   -2.883880
C       2.492670   -0.693078   -4.081391
O       1.411472   -0.157240   -1.951236
H       0.889668    1.940740   -0.603991
H      -0.838141    1.580253   -0.787041
H      -0.156140    1.930944    0.823216
H      -0.288559   -0.421126    0.718683
H       0.020576   -2.803332   -0.609984
H       1.418635   -4.338645   -2.488380
H       1.938925   -3.604706   -3.864620
H       2.815390   -1.560502   -4.665888
H       1.896307   -0.056340   -4.749384
H       3.392269   -0.126525   -3.810224
