19

C      -0.087966    1.573270    0.025722
C      -0.015170    0.074970   -0.043338
C       0.647484   -0.694815   -1.189756
C      -0.357509   -1.873130   -0.964597
O       0.146858   -3.051732   -0.345583
C       1.037208   -2.775205    0.700019
O       0.552841   -1.852676    1.656553
C      -0.244949   -0.807501    1.164336
C      -1.156082   -0.989349    0.001904
H       0.899176    2.006043    0.229053
H      -0.445927    1.997189   -0.920118
H      -0.764388    1.908240    0.818912
H       0.433109   -0.215864   -2.150082
H       1.721432   -0.893596   -1.140714
H      -0.878850   -2.206675   -1.860862
H       1.198476   -3.716464    1.231492
H       1.997803   -2.413162    0.301107
H      -0.659829   -0.273920    2.013784
H      -2.234036   -0.885302    0.042321
