20

C      -0.007099    1.524491   -0.019119
C      -0.007163   -0.019730   -0.018508
C       0.759108   -0.529147    1.221583
C      -1.451383   -0.544666    0.004410
C       0.711865   -0.499499   -1.256919
N       0.154405   -1.265382   -2.184287
N       1.162689   -1.428337   -3.075983
C       2.261534   -0.769542   -2.660655
N       2.018685   -0.169461   -1.515435
H       1.013370    1.912491   -0.070041
H      -0.564088    1.916922   -0.876173
H      -0.478575    1.903133    0.894019
H       0.289042   -0.154293    2.137005
H       0.756750   -1.623262    1.262691
H       1.798444   -0.191746    1.201174
H      -2.014193   -0.199299   -0.867037
H      -1.477536   -1.637725    0.001990
H      -1.960170   -0.189483    0.906530
H       1.017081   -1.981741   -3.903909
H       3.189570   -0.757430   -3.212819
