21

C      -0.049153    1.551757    0.004558
C       0.063050    0.028682    0.001620
C       0.894789   -0.556989   -1.172383
C       1.519657   -1.787355   -0.579266
C       1.427223   -1.812383    0.757970
C       0.715610   -0.575189    1.275744
C       2.009789   -2.899986    1.589410
C       1.892447   -2.758715    3.097185
O       2.555798   -3.862955    1.086390
H       0.940326    2.017840    0.079132
H      -0.521040    1.917828   -0.913518
H      -0.648917    1.906377    0.849527
H      -0.945726   -0.395550   -0.076103
H       0.288575   -0.765714   -2.061258
H       1.679108    0.144080   -1.498609
H       2.023842   -2.553993   -1.156192
H       1.435193    0.128002    1.721672
H      -0.024891   -0.788506    2.054182
H       0.838628   -2.744617    3.398954
H       2.399031   -3.593556    3.582198
H       2.329113   -1.811628    3.434127
