20

C      -0.481184    1.408165   -0.032051
C       0.179980    0.045144    0.176749
N       0.775406   -0.424729   -1.071932
C       1.964595   -0.805650   -1.082448
C       2.918959   -1.331247   -2.135778
C       3.898628   -1.386819   -0.968503
C       4.884170   -2.416743   -0.546849
C       5.325709   -0.986792   -0.850796
O       2.899642   -0.884335   -0.051251
H       0.263188    2.164573   -0.299781
H      -1.215979    1.357878   -0.840621
H      -0.987793    1.735248    0.881600
H       0.909751    0.098009    0.995309
H      -0.585169   -0.684277    0.472522
H       2.636072   -2.292605   -2.569474
H       3.157830   -0.623006   -2.931710
H       4.869194   -2.720841    0.493988
H       5.142527   -3.203345   -1.248175
H       5.886098   -0.795355   -1.760019
H       5.597780   -0.361631   -0.007475
