19

O       0.150803    1.391300   -0.150081
C       0.033772   -0.018624    0.009755
C       0.617899   -0.485132    1.366638
C      -0.563261   -0.451273    2.336172
C      -1.837599   -0.438161    1.518967
C      -1.449776   -0.463778    0.040758
C      -1.494278   -1.660672    2.366316
C      -1.127957   -2.912001    1.774880
C      -0.818261   -3.962803    1.275484
H      -0.315234    1.807517    0.584035
H       0.575241   -0.440343   -0.841408
H       1.034847   -1.494599    1.286103
H       1.423859    0.185590    1.673722
H      -0.477724    0.108962    3.260355
H      -2.704968    0.131804    1.832189
H      -2.055166    0.221608   -0.557145
H      -1.565343   -1.467710   -0.381281
H      -2.079408   -1.755122    3.277208
H      -0.551200   -4.895550    0.844231
