14

C       0.059775    1.472321   -0.051447
C      -0.105424   -0.003324    0.051908
C      -1.214144   -0.714033   -0.174063
C      -1.199681   -2.150295   -0.026999
N      -2.187495   -2.911681   -0.215598
O       0.040820   -2.690447    0.359018
C       1.158997   -1.966233    0.586484
O       2.183363   -2.470734    0.911172
O       1.068480   -0.611717    0.427078
H       0.836110    1.716100   -0.784484
H      -0.876614    1.945152   -0.349949
H       0.381702    1.885817    0.910213
H      -2.140223   -0.244053   -0.468969
H      -1.937180   -3.887253   -0.051301
