18

C      -0.135590    1.423012   -0.297360
C       1.230620    0.858863   -0.023178
C      -0.008114   -0.044537   -0.016209
C       0.521108   -0.801860   -1.254189
N      -0.321747   -0.753289   -2.428306
C      -0.059683    0.116513   -3.308965
O       0.946019    1.024576   -3.364077
C       2.110300    0.788416   -2.546064
C       1.805549    0.097009   -1.224573
H      -0.554114    2.001773    0.520224
H      -0.415802    1.790227   -1.278948
H       1.824118    1.192586    0.819579
H      -0.508214   -0.516238    0.820097
H       0.736965   -1.846780   -1.019823
H      -0.704472    0.234633   -4.178997
H       2.796262    0.169473   -3.138878
H       2.571250    1.770260   -2.406797
H       2.681249   -0.485137   -0.924706
