19

C      -0.169080    1.321378   -0.172327
O       0.282455    0.002771    0.051427
C       0.802730   -0.608896   -1.102487
C       1.218273   -2.039689   -0.798867
C      -0.173097   -2.571246   -1.163566
C      -0.277181   -1.262691   -2.024233
O       0.518497   -1.854202   -3.085191
C       0.956482   -2.812709   -2.104298
C       1.675953   -4.035205   -2.559271
H       0.638841    1.967350   -0.548891
H      -1.002942    1.363583   -0.888756
H      -0.514015    1.710506    0.788464
H       1.519683    0.052673   -1.612586
H       1.895687   -2.387634   -0.029576
H      -0.877401   -3.207336   -0.646739
H      -1.168934   -0.742468   -2.367582
H       2.630886   -3.773081   -3.026922
H       1.881425   -4.691656   -1.708557
H       1.075636   -4.588992   -3.287678
