21

C      -0.047299    1.564731   -0.012517
C       0.100638    0.045470    0.004420
C       0.786481   -0.507902   -1.267333
C       1.102963   -1.973917   -1.154193
C       1.155654   -2.625190    0.005806
C       0.959230   -1.977970    1.360113
C       2.037657   -2.396348    2.368567
C       0.857765   -0.454755    1.231098
O       1.346054    0.293922    2.046301
H       0.933040    2.049401   -0.023135
H      -0.603358    1.887228   -0.898400
H      -0.574746    1.919641    0.876236
H      -0.892875   -0.425431    0.050096
H       0.138031   -0.325459   -2.133181
H       1.706631    0.062123   -1.466011
H       1.294026   -2.510777   -2.080206
H       1.381634   -3.689397    0.020592
H      -0.017291   -2.306435    1.756697
H       3.032048   -2.108934    2.014559
H       1.872439   -1.908447    3.330821
H       2.025886   -3.480836    2.513612
