17

O      -0.042007    1.412058   -0.000552
C       0.008206    0.023523   -0.074259
C       0.893629   -0.648504   -1.073355
C       0.297893   -1.716097   -1.605490
C      -1.100821   -1.920030   -1.059366
C      -1.258276   -0.787220   -0.049574
C      -0.347856   -0.784649    1.185899
C       0.368380   -1.943940    1.618957
C       0.957045   -2.925390    1.991880
H       0.734039    1.717129    0.482237
H       1.896946   -0.298795   -1.286743
H       0.751024   -2.402612   -2.311307
H      -1.860276   -1.865258   -1.849316
H      -1.205092   -2.904972   -0.586882
H      -2.215774   -0.295608    0.069731
H      -0.732224   -0.153828    1.983754
H       1.485024   -3.784659    2.323303
