18

N       0.063757    1.348674    0.371241
C      -0.043015    0.049742   -0.026219
C      -1.143695   -0.759269   -0.061213
C      -0.774411   -2.145278   -0.543534
C       0.755907   -2.180249   -0.383838
O       1.331991   -3.019644   -1.366426
C       1.187943   -0.693891   -0.482483
C      -2.491163   -0.376707    0.273657
O      -3.462790   -1.109696    0.215210
H       0.884909    1.863372    0.101117
H      -0.769940    1.901523    0.486275
H      -1.276760   -2.936997    0.017899
H      -1.030234   -2.294590   -1.600832
H       0.999144   -2.544687    0.625273
H       2.258130   -3.156380   -1.144908
H       1.412232   -0.451589   -1.530807
H       2.075803   -0.449066    0.112502
H      -2.617964    0.681405    0.613689
