21

C      -0.096835    1.531846    0.015848
C       0.018410    0.020946    0.048004
C      -1.206217   -0.683551   -0.512642
C       1.357567   -0.697561   -0.239177
C       2.628646    0.061462   -0.112556
C       2.821159    0.514980    1.130957
C       1.700199    0.105621    2.059367
C       0.738765   -0.689047    1.161670
O       0.099046   -1.792317    1.730981
H       0.831293    2.030815    0.300382
H      -0.361021    1.871136   -0.992307
H      -0.889069    1.870402    0.694135
H      -1.367826   -0.389225   -1.555911
H      -1.108536   -1.769036   -0.465089
H      -2.103935   -0.410783    0.053788
H       1.302108   -1.571377   -0.881043
H       3.301447    0.226281   -0.947213
H       3.661382    1.116400    1.458824
H       2.057813   -0.529254    2.883204
H       1.210409    0.965541    2.533312
H       0.772446   -2.447000    1.946408
