13

C      -0.014105    1.521973   -0.018744
C      -0.007348    0.031836    0.059493
N      -0.043744   -0.672855   -1.058145
O      -0.027842   -2.078970   -0.694778
C       0.017568   -2.069025    0.617429
C       0.033946   -0.840524    1.185861
N       0.082047   -0.998957    2.570374
C       0.091099   -2.280574    2.718540
O       0.051745   -3.038685    1.538788
H       0.884845    1.933767    0.450476
H      -0.052829    1.844649   -1.060402
H      -0.878610    1.929185    0.514762
H       0.124086   -2.859574    3.627121
