17

C       0.278968    1.063377    1.153931
C       0.114786    0.095065    0.003538
O       0.951014   -0.031287   -0.862794
C      -1.175537   -0.723178   -0.002707
O      -2.189417    0.046684    0.561318
C      -1.578007   -1.617824   -1.219371
C      -0.465566   -2.632071   -0.891189
C      -1.168420   -2.247423    0.421939
O      -2.476831   -2.361830   -0.276698
H       1.281365    1.491550    1.125163
H      -0.474142    1.853215    1.075729
H       0.099702    0.563828    2.111523
H      -2.965814   -0.535091    0.551893
H      -2.000543   -1.317941   -2.177898
H      -0.688584   -3.647065   -1.218577
H       0.566192   -2.329593   -1.051247
H      -1.099074   -2.679233    1.421211
