18

O      -0.050513    0.162905    0.810390
C      -0.071014    1.151375    0.114373
C      -1.300785    1.633258   -0.630804
C      -1.344457    3.171003   -0.686571
C      -0.033489    3.734193   -1.228002
C       1.131428    4.114025   -0.399563
C       1.230568    3.284096    0.873557
C       1.156156    2.029225   -0.055075
N       1.190191    2.890941   -1.301139
H      -1.225911    1.239867   -1.654106
H      -2.193570    1.198870   -0.175441
H      -2.167924    3.492507   -1.329676
H      -1.559188    3.571387    0.310739
H      -0.128971    4.310273   -2.144415
H       1.720920    5.000783   -0.610662
H       2.202388    3.360634    1.362153
H       0.449185    3.420078    1.627875
H       2.048853    1.406407   -0.000388
