19

O      -0.054940    1.413741   -0.011114
C       0.013252    0.003297    0.030343
C      -1.426246   -0.557936    0.026872
C      -1.348181   -2.108948    0.011657
C       0.142640   -2.512922    0.023795
O       0.749329   -1.992678   -1.179257
C       0.716024   -0.571938   -1.227752
C       0.807628   -1.895419    1.230042
C       0.734013   -0.563696    1.230604
H       0.845504    1.756850   -0.021222
H      -1.955542   -0.182578    0.905848
H      -1.943804   -0.174371   -0.857736
H      -1.860688   -2.544634    0.874183
H      -1.811165   -2.517979   -0.890749
H       0.271564   -3.594650   -0.033935
H       0.170816   -0.246084   -2.124072
H       1.744844   -0.185264   -1.290475
H       1.290332   -2.494001    1.994020
H       1.143451    0.094913    1.989895
