18

C      -0.151389    1.560043   -0.068311
C       0.024833    0.035313    0.013308
C       0.780501   -0.539750   -1.191637
C       2.271154   -0.257477   -1.133543
O       2.985920   -0.161274   -2.106375
N       2.781225   -0.141255    0.148042
C       2.082601   -0.218809    1.364253
N       2.612540   -0.154827    2.524340
N       0.725429   -0.406164    1.217701
H       0.814866    2.070212   -0.135100
H      -0.743298    1.834051   -0.947607
H      -0.669501    1.934683    0.819640
H      -0.967866   -0.425841    0.045283
H       0.661392   -1.629409   -1.212352
H       0.403039   -0.146411   -2.136992
H       3.778337    0.012766    0.198378
H       3.626987   -0.098983    2.473956
H       0.243009   -0.294135    2.097625
