15

C       1.062176    0.817185   -0.574714
C       0.051701   -0.101321    0.074040
O       0.542138   -1.257766    0.770051
C      -0.110152   -0.249898    1.544690
C       0.711737    0.549245    2.536130
N       2.023642    0.196286    2.589563
O       0.192677    1.419765    3.202416
C      -1.127585   -0.369122   -0.738144
N      -2.054332   -0.558026   -1.401760
H       1.898754    1.001402    0.099694
H       1.436566    0.366031   -1.497734
H       0.590190    1.770993   -0.826392
H      -1.097548   -0.509606    1.920537
H       2.339940   -0.630098    2.109087
H       2.602498    0.613766    3.300162
