18

C       0.019194    1.478678   -0.160702
C       0.029266   -0.019964   -0.047240
C      -1.088851   -0.760497   -0.023097
C      -1.065762   -2.231691    0.049405
C      -0.428934   -3.011473   -1.107029
C       0.300760   -2.841409    0.187382
O       1.429209   -2.011493    0.288095
C       1.354885   -0.660477    0.065798
N       2.420305    0.032175    0.005887
H       0.562017    1.805941   -1.052625
H      -1.005933    1.855287   -0.209990
H       0.529375    1.937814    0.691168
H      -2.058385   -0.270985   -0.065862
H      -1.894275   -2.705008    0.566185
H      -0.822721   -3.994294   -1.341854
H      -0.097921   -2.426684   -1.957892
H       0.437471   -3.706802    0.825308
H       3.235229   -0.573157    0.121778
