8

N      -0.029954    1.360738    0.010231
C       1.282420    1.738727   -0.000609
N       2.059968    0.688094   -0.014331
N       1.242911   -0.428156   -0.012340
C       0.006416   -0.004522    0.002323
H      -0.841933    1.955100    0.021583
H       1.604521    2.768173    0.001944
H      -0.877503   -0.622721    0.007682
