18

C       0.048159    1.541538    0.009821
C       0.041404    0.045949    0.044183
C      -0.915115   -0.811918    0.819448
C       0.569616   -0.988128    1.051141
C       1.262700   -1.714343   -0.113597
C       0.614856   -2.887919   -0.891623
C      -0.083734   -1.775149   -1.714640
O      -0.967211   -1.727937   -2.517694
N       0.665396   -0.735350   -1.077099
H       1.045998    1.925577   -0.222703
H      -0.643754    1.912095   -0.754768
H      -0.267984    1.949434    0.975008
H      -1.421850   -0.295433    1.629068
H      -1.526852   -1.569523    0.338733
H       1.017678   -0.820497    2.022651
H       2.352983   -1.704508   -0.055974
H       1.312014   -3.515936   -1.451395
H      -0.084634   -3.525996   -0.347332
