22

C       1.318417    1.113191   -0.894399
C       0.229675    0.801931    0.139041
C       0.761098   -0.069841    1.271734
N      -0.167846   -0.517823    2.369476
C      -1.559110   -0.107081    2.390832
C       0.140531   -1.917558    2.106895
C      -0.147265   -2.340271    0.674523
C       1.095468   -1.546531    1.000402
O       2.377341   -2.026480    0.801269
H       1.694174    0.197938   -1.365055
H       0.936723    1.759734   -1.689993
H       2.172042    1.619067   -0.430657
H      -0.155317    1.740847    0.556603
H      -0.617662    0.314367   -0.355904
H       1.629660    0.425453    1.726962
H      -2.146787   -0.395062    1.501789
H      -2.043258   -0.556934    3.264520
H      -1.623217    0.979741    2.502781
H       0.244060   -2.633561    2.915047
H       0.051162   -3.389750    0.477756
H      -0.975628   -1.920907    0.110848
H       2.521372   -2.120022   -0.146265
