18

C       0.096894    1.388229    0.242893
C      -0.105233   -0.095238   -0.024875
C       0.950173   -0.789158   -0.942453
N       1.280636   -1.678561    0.169326
C       0.327385   -1.073640    1.110968
C       2.191918   -2.667107    0.201893
O       2.900056   -2.983841   -0.743628
C       2.326993   -3.426693    1.520755
O       1.694841   -3.205732    2.521372
H       1.118234    1.592368    0.583088
H      -0.079324    1.979182   -0.661998
H      -0.591512    1.746822    1.015353
H      -1.127081   -0.285040   -0.361229
H       0.563435   -1.314906   -1.821174
H       1.789720   -0.157521   -1.254702
H       0.803936   -0.601213    1.975603
H      -0.437492   -1.765456    1.472664
H       3.095792   -4.223222    1.447482
