21

C      -0.011129    1.509320    0.042830
C      -0.000497    0.001210    0.011621
C      -0.630099   -0.815668    1.118585
C       0.867683   -0.866446    0.897040
C       1.398224   -1.878810   -0.109736
C       0.258151   -2.259989   -1.110945
C       1.298055   -2.374047   -2.248388
C       1.710468   -1.118259   -1.454017
C       0.192208   -0.713365   -1.327493
H       0.842213    1.925092   -0.506193
H      -0.923734    1.914641   -0.411113
H       0.039579    1.885696    1.069700
H      -0.970709   -0.263839    1.990085
H      -1.240244   -1.681992    0.886954
H       1.533436   -0.443232    1.641546
H       2.081185   -2.660831    0.228495
H      -0.582071   -2.930195   -0.921446
H       1.977375   -3.230532   -2.205967
H       0.930146   -2.217535   -3.266621
H       2.552344   -0.448444   -1.643516
H      -0.328330   -0.326123   -2.206745
