16

O       0.053272    1.351465    0.022860
C       0.032814   -0.030005   -0.029915
C      -1.277263   -0.811712   -0.211104
N      -0.433503   -1.941996   -0.743049
C       0.567558   -2.215765    0.351690
C       1.762857   -1.655743   -0.453082
O       2.190557   -0.791574    0.620404
C       0.801545   -0.828908    1.046453
C       0.611910   -0.923712   -1.201060
H       0.958372    1.621372    0.222666
H      -1.881581   -1.042716    0.672699
H      -1.914109   -0.417930   -1.006987
H       0.513646   -3.149176    0.908297
H       2.561004   -2.191942   -0.961161
H       0.650016   -0.591804    2.098463
H       0.609036   -0.584610   -2.234791
