14

N       0.108780    1.333155    0.392853
C      -0.041345   -0.007278    0.092262
C      -1.241818   -0.646358    0.148565
C      -1.452248   -2.045006   -0.257991
O      -2.411468   -2.389599   -0.913159
N      -0.560064   -2.991223    0.276641
C       0.710095   -2.876297    0.259877
N       1.518344   -1.908715   -0.322453
C       1.180002   -0.672768   -0.375797
H       0.905484    1.808282   -0.002288
H      -0.727735    1.895783    0.409608
H      -2.145661   -0.075610    0.347448
H       1.293437   -3.674665    0.720918
H       1.920485    0.000748   -0.821185
