16

N       0.189385    0.944562   -0.604075
C       0.041368   -0.190115   -0.099855
O       0.971632   -1.086209    0.417885
C      -0.076036   -2.031230    0.797194
C      -1.144315   -1.096267    0.194161
O      -1.408680   -2.033312   -0.874206
C      -0.463680   -2.969597   -0.323982
C       0.366710   -3.871884   -1.164967
C      -0.740008   -4.436539   -0.284265
H       1.174166    1.213297   -0.648917
H       0.026234   -2.371381    1.825099
H      -2.042673   -0.694426    0.659638
H       0.182993   -3.840954   -2.233217
H       1.401470   -4.033496   -0.883284
H      -0.467690   -4.990093    0.608567
H      -1.646342   -4.774202   -0.774527
