19

C      -0.244916    1.542791   -0.083243
C       0.022133    0.040570   -0.042383
C       1.234927   -0.397589   -0.926321
C       2.058113   -0.496748    0.367997
O       3.227164   -0.446234    0.615487
C       0.785864   -0.478090    1.232424
C       0.778781    0.310103    2.549887
C       1.460324   -0.393163    3.629597
C       2.004915   -0.994004    4.516109
H       0.672057    2.121091    0.078777
H      -0.646425    1.833216   -1.059280
H      -0.970505    1.846285    0.678301
H      -0.900558   -0.508187   -0.243641
H       1.100207   -1.378268   -1.393514
H       1.599190    0.305498   -1.680002
H       0.491464   -1.515563    1.430881
H       1.244651    1.291114    2.400170
H      -0.261200    0.503904    2.844042
H       2.501969   -1.514299    5.296696
