14

O      -0.097358    1.532232   -0.039251
C      -0.052864    0.131887   -0.016685
C       0.149260   -0.592363    1.335896
O       1.007649   -0.622040    2.159986
N      -1.084789   -1.352816    1.264814
C      -2.148774   -0.307579    1.203701
C      -1.416636   -0.561917   -0.052173
C      -1.978060   -1.192357   -1.196237
C      -2.443582   -1.693050   -2.185274
H       0.791211    1.862174    0.135804
H       0.620293   -0.286639   -0.778187
H      -3.142749   -0.731380    1.291464
H      -1.993788    0.629934    1.729914
H      -2.857045   -2.144193   -3.053524
