23

O       0.107057    1.389048   -0.223609
C       0.043159   -0.018214   -0.034842
C       0.709159   -0.535911    1.283019
C      -0.396363   -1.335137    2.019321
C      -1.291079   -1.791851    0.848227
C      -1.429854   -0.480583    0.054364
C      -2.320170    0.501560    0.843500
C      -1.757511    0.810793    2.243511
C      -1.225944   -0.442630    2.963864
H       1.033185    1.636730   -0.300195
H       0.512578   -0.520231   -0.894234
H       1.562724   -1.181551    1.052617
H       1.086731    0.302634    1.877256
H       0.018826   -2.177315    2.581366
H      -0.791112   -2.564073    0.250608
H      -2.254702   -2.196329    1.174357
H      -1.852881   -0.630939   -0.943517
H      -2.436464    1.434054    0.283978
H      -3.318221    0.051685    0.926727
H      -0.942458    1.531790    2.126888
H      -2.520045    1.303029    2.857404
H      -2.060953   -1.036523    3.358820
H      -0.622082   -0.143071    3.829341
