15

O      -0.042791    1.453749    0.010284
C       0.042541    0.038906    0.001816
C      -1.379692   -0.505819    0.012501
C      -1.414143   -2.035692    0.004539
C      -2.824056   -2.586955    0.014992
F      -3.525453   -2.183450   -1.057580
F      -2.820751   -3.930041    0.007711
F      -3.504859   -2.195123    1.105021
H       0.849761    1.811511    0.003787
H       0.574970   -0.325704   -0.892395
H       0.591971   -0.335298    0.881663
H      -1.897117   -0.126492    0.899373
H      -1.913989   -0.116960   -0.860125
H      -0.918989   -2.439380   -0.884929
H      -0.902158   -2.448948    0.879972
