18

C       0.173726    1.619881   -0.106014
C      -0.038947    0.104628   -0.003840
O       0.420391   -0.570609   -1.170853
C       0.592999   -0.471429    1.229858
C       0.126402   -1.135685    2.324907
C      -1.275502   -1.513935    2.686036
C       1.319993   -1.397755    3.061913
N       2.395219   -0.943494    2.472022
O       1.936341   -0.344955    1.302253
H       1.241918    1.857569   -0.117714
H      -0.279987    1.989260   -1.029024
H      -0.278572    2.138639    0.745038
H      -1.111832   -0.107121    0.041579
H       1.382170   -0.503488   -1.183423
H      -1.360899   -2.589272    2.874919
H      -1.612568   -0.997661    3.591849
H      -1.974787   -1.264196    1.884173
H       1.421722   -1.911928    4.008388
