18

O      -0.013455    1.428490    0.043298
C       0.033310    0.009261   -0.036361
C       0.876504   -0.575763    1.116133
C       0.832237   -2.095269    1.194122
O       0.008688   -2.665837    2.221155
C      -0.428187   -2.782959    0.871485
C      -1.604555   -1.960806    0.409955
N      -1.993553   -0.795835    1.223622
C      -1.364097   -0.577348   -0.089038
H      -0.485446    1.642571    0.857038
H       0.525737   -0.200345   -0.994380
H       1.904871   -0.222674    1.003154
H       0.489156   -0.181138    2.060377
H       1.770712   -2.627140    1.042037
H      -0.397105   -3.796147    0.469990
H      -2.403104   -2.528268   -0.060969
H      -2.999268   -0.663069    1.168540
H      -1.980418   -0.209467   -0.906174
