16

O       0.094050    1.413050   -0.425135
C       0.012280    0.180181    0.276351
C      -1.325341   -0.409375    0.266408
C      -2.428874   -0.887250    0.191499
C      -3.748693   -1.446166    0.156037
N      -4.239214   -1.979719   -1.130890
C      -3.992958   -2.926941   -0.028356
C      -2.922662   -3.870848   -0.177634
C      -2.041782   -4.683077   -0.267788
H      -0.277204    1.268842   -1.301976
H       0.731620   -0.555580   -0.117417
H       0.318626    0.401341    1.304887
H      -4.475939   -0.947106    0.794049
H      -5.238473   -1.805822   -1.211335
H      -4.861790   -3.311005    0.503110
H      -1.257990   -5.393694   -0.358742
