17

C       0.014278    1.257375   -0.307132
O      -0.079510   -0.126735    0.061978
C      -1.315224   -0.641618    0.066365
O      -2.314439   -0.021044   -0.208445
C      -1.293723   -2.099596    0.480266
N      -2.638881   -2.625787    0.485110
C      -2.857868   -3.896358   -0.010499
N      -4.198958   -4.197849   -0.195639
O      -1.960374   -4.675102   -0.275220
H       1.073836    1.505489   -0.253298
H      -0.364576    1.410217   -1.320489
H      -0.561462    1.878320    0.383419
H      -0.666415   -2.677345   -0.206841
H      -0.814832   -2.166480    1.466196
H      -3.343896   -1.920673    0.313191
H      -4.869013   -3.743109    0.405864
H      -4.362518   -5.183832   -0.329419
