18

C       0.393786    1.412832    0.013250
C      -0.130814   -0.023763   -0.022573
O      -1.554969   -0.049861    0.020135
C       0.420047   -0.774474   -1.258679
O       0.703395   -2.151126   -0.980793
C       1.630613   -2.345456   -0.016704
N       2.449087   -3.299729   -0.089902
O       1.587369   -1.434799    0.999364
C       0.302229   -0.835114    1.207916
H       1.479031    1.426667    0.151243
H       0.170449    1.939987   -0.922677
H      -0.071930    1.960544    0.837537
H      -1.890205    0.622640   -0.582126
H      -0.330437   -0.785864   -2.051014
H       1.330151   -0.294211   -1.637856
H       2.997334   -3.343019    0.767473
H       0.404330   -0.209049    2.095524
H      -0.450642   -1.606732    1.396565
