19

N       0.128854    1.311681   -0.425538
C       0.092694   -0.087056   -0.060965
C       0.151899   -0.522685    1.399221
N       0.927678   -0.291173    2.357889
O      -1.020852   -1.243208    1.336272
C      -1.283048   -0.811961   -0.038011
C      -2.579244   -0.039060   -0.339905
C      -2.676195   -0.838492   -1.670658
C      -1.667458   -1.867899   -1.084980
H      -0.269112    1.879940    0.316336
H       1.091125    1.616530   -0.527770
H       0.818172   -0.631562   -0.672337
H       0.602454   -0.736820    3.218044
H      -3.364397   -0.315379    0.368884
H      -2.508420    1.048253   -0.405310
H      -3.659933   -1.214644   -1.955103
H      -2.253220   -0.280111   -2.508470
H      -0.873601   -2.250668   -1.731625
H      -2.175480   -2.710788   -0.608076
