17

C       0.359927    1.639917    0.072633
C       0.069223    0.155141    0.039720
C       1.195709   -0.842145   -0.243817
C       0.650105   -0.766252    1.125483
O       1.479646   -0.193863    2.104435
C       0.955859   -0.053911    3.346467
O       1.563382    0.448962    4.239829
C      -1.282181   -0.265751   -0.420570
O      -1.626460   -1.417681   -0.552129
H       1.311596    1.842434    0.567374
H       0.408774    2.053064   -0.940111
H      -0.419956    2.182610    0.618514
H       0.936086   -1.710489   -0.838481
H       2.179793   -0.418048   -0.407625
H       0.005306   -1.566657    1.477175
H      -0.068953   -0.462130    3.427539
H      -1.987026    0.570223   -0.626182
