17

C       0.132784    1.489698   -0.281668
C      -0.070281    0.039797    0.100700
O       0.623075   -0.869333   -0.826939
C       1.378329   -1.416950    0.180151
O       2.221586   -2.247776    0.084782
C       0.724358   -0.575422    1.282434
C       1.644336    0.311099    2.137243
C       2.356563   -0.450071    3.155679
C       2.925855   -1.086044    4.000526
H       1.193660    1.745935   -0.343685
H      -0.319937    1.684547   -1.257835
H      -0.345275    2.148199    0.451021
H      -1.133545   -0.216109    0.116179
H       0.101871   -1.192358    1.935174
H       2.365289    0.836149    1.500457
H       1.035961    1.087158    2.619504
H       3.441977   -1.649923    4.737580
