23

C       1.161828   -0.164846    1.223468
C       0.176663    0.108638    0.078109
C       0.692158   -0.307141   -1.297076
C       1.838106    0.564464   -1.811678
C       2.436672    0.158308   -3.160065
C       0.581394   -1.752164   -1.674660
N      -0.239917   -0.750268   -2.341880
C      -1.677685   -0.778063   -2.133157
H       1.422711   -1.227337    1.270608
H       2.091162    0.400848    1.111558
H       0.721846    0.115721    2.185674
H      -0.758526   -0.414152    0.297705
H      -0.068006    1.179436    0.057219
H       1.457770    1.593523   -1.881735
H       2.631090    0.588601   -1.054378
H       2.971032   -0.795034   -3.095105
H       1.652581    0.057329   -3.913895
H       3.154139    0.911195   -3.500215
H       1.332681   -2.245620   -2.285792
H       0.090337   -2.408804   -0.954845
H      -2.000182   -1.209125   -1.172382
H      -2.080032    0.237848   -2.205436
H      -2.131875   -1.376863   -2.929884
