17

C       1.147137    0.995165    0.151397
N       0.475593    0.067859   -0.771885
C      -0.236496    0.535797    0.431393
C      -0.524513   -0.510612    1.444452
C      -1.770138   -1.429941    1.586265
C      -0.892180   -1.558228    2.849828
C       0.370214   -1.665735    1.962692
O      -0.731977   -0.084867    2.859552
H       1.977960    0.565665    0.702668
H       1.284390    2.030873   -0.147043
H       0.137028    0.568980   -1.588655
H      -1.034473    1.264947    0.303805
H      -2.716179   -0.906257    1.731504
H      -1.849723   -2.290226    0.917210
H      -1.112534   -2.042718    3.800392
H       0.487964   -2.544806    1.325923
H       1.297659   -1.352740    2.443897
