15

C      -0.019420    1.465695    0.109191
C      -0.034182   -0.026619   -0.153955
O      -1.298903   -0.539045    0.319093
C      -1.524526   -1.834844    0.125132
C      -2.606305   -2.530402   -0.302908
N      -2.325134   -3.891996   -0.214777
C      -1.119619   -3.945926    0.237309
O      -0.550495   -2.732235    0.480586
H       0.927195    1.893973   -0.232807
H      -0.837278    1.961163   -0.420741
H      -0.126209    1.669051    1.178158
H       0.057864   -0.249113   -1.224704
H       0.779766   -0.534683    0.373741
H      -3.551076   -2.153413   -0.655753
H      -0.507958   -4.811745    0.434293
