17

C       0.015154    1.554517    0.047266
C      -0.035618    0.059870   -0.035161
C      -0.878760   -0.815218    0.795178
N       0.600107   -0.831046    1.043242
C       1.167244   -1.654578   -0.026102
O       1.874816   -2.606761    0.051997
C       0.604694   -0.780036   -1.133563
C       0.151056   -1.082822   -2.512693
N       1.390147   -0.327258   -2.277607
H       1.019538    1.928122   -0.177200
H      -0.687717    2.010125   -0.660098
H      -0.254105    1.892685    1.051280
H      -1.426040   -0.377516    1.624848
H      -1.341727   -1.699777    0.364560
H       0.297534   -2.080688   -2.915590
H      -0.730399   -0.558707   -2.874426
H       1.236225    0.667910   -2.429539
