15

C      -0.022328    1.530733    0.102895
C      -0.037358    0.006384   -0.099725
C      -1.429480   -0.558142   -0.039894
N      -2.054530   -0.555959    1.157205
C      -3.277547   -1.044028    1.172197
C      -3.836694   -1.517193   -0.018997
F      -5.063744   -2.010410   -0.019376
N      -3.199919   -1.500586   -1.161881
N      -1.958732   -1.008256   -1.179295
H       1.004359    1.906781    0.091642
H      -0.578301    2.037054   -0.692163
H      -0.475434    1.797389    1.061870
H       0.395253   -0.257531   -1.067206
H       0.560703   -0.469677    0.684963
H      -3.829317   -1.071643    2.108474
