18

O       0.078084    1.415021   -0.097689
C       0.047726    0.017923    0.124217
C       0.101484   -0.534621    1.592112
C      -1.240452   -1.230059    1.341044
C      -2.314637   -0.248028    0.985277
C      -2.474851    1.149829    1.578622
C      -3.049344    1.110704    2.923773
N      -3.502215    1.061526    3.986053
C      -1.318677   -0.624251   -0.078538
H       0.985633    1.719594    0.005490
H       0.799830   -0.485930   -0.495879
H       0.930095   -1.228585    1.746708
H       0.117522    0.213309    2.390329
H      -1.479022   -2.240159    1.648576
H      -3.272343   -0.737732    0.824207
H      -1.520100    1.678567    1.604520
H      -3.132085    1.746736    0.935864
H      -1.643526   -1.081892   -1.005305
