16

C      -0.043436    1.572705   -0.098993
C      -0.061508    0.047044   -0.071139
C      -1.474106   -0.515499    0.170734
O      -1.985228   -0.098475    1.418193
C       0.789981   -0.686522   -1.131587
O       1.655044   -1.232778   -0.076848
C       0.927456   -0.608566    0.897442
O       1.064560   -0.679404    2.080734
H       0.975676    1.965380   -0.160447
H      -0.606449    1.941002   -0.963446
H      -0.515790    1.963345    0.804620
H      -2.163359   -0.136888   -0.592472
H      -1.453932   -1.614014    0.084734
H      -1.362642   -0.384193    2.099606
H       0.302687   -1.496756   -1.678793
H       1.362889   -0.050979   -1.809342
