14

N      -0.072512    1.327352    0.009907
C       0.013858    0.048812    0.001227
N      -1.180887   -0.656026    0.003584
C      -1.534288   -1.997329   -0.001742
O      -2.714952   -2.293547    0.002957
C      -0.503207   -3.049744   -0.012247
C       0.836854   -2.963040   -0.019388
N       1.687476   -1.862069   -0.019850
C       1.333715   -0.637791   -0.011442
H       0.852858    1.753740    0.006821
H      -1.992531   -0.048160    0.011554
H      -0.949789   -4.038215   -0.014188
H       1.391476   -3.898015   -0.026550
H       2.149865    0.090279   -0.013512
