18

O      -0.080509   -0.080325    0.198730
C      -0.025731    1.123762    0.055584
N       1.113836    1.849406   -0.093879
C       2.412698    1.244576   -0.097708
C       3.527773    1.737380   -0.986127
C       3.377848    3.140595   -1.542390
O       2.945451    3.948603   -0.442608
C       3.509174    3.408031    0.757125
C       3.613973    1.912940    0.523388
H      -0.924371    1.771352    0.031597
H       1.061429    2.850953   -0.207329
H       2.326097    0.173229    0.031841
H       4.143471    1.026516   -1.524769
H       4.339356    3.497368   -1.941647
H       2.620101    3.237694   -2.326767
H       4.504706    3.834080    0.953568
H       2.843138    3.691889    1.578513
H       4.295502    1.336154    1.137704
