16

O      -0.745127    1.306977    0.580193
C      -0.380984    0.005608    0.319990
C      -0.785112   -1.155435    1.169419
C      -1.387139   -1.025634   -0.240941
C      -2.862570   -0.709458   -0.481111
C      -3.674195    0.052740    0.536668
O      -3.273165    0.672137    1.494925
C      -0.863533   -1.919968   -1.239202
N      -0.445041   -2.631749   -2.051087
H      -1.532118    1.293867    1.147832
H       0.600976   -0.033739   -0.139707
H      -0.078093   -1.960560    1.332493
H      -1.459022   -0.964004    1.995275
H      -2.977455   -0.145954   -1.421266
H      -3.412706   -1.643876   -0.659625
H      -4.763375    0.014930    0.324081
