20

C      -0.071544    1.555913    0.082556
C       0.088757    0.049854   -0.033296
C       0.659845   -0.791732   -1.182150
C       1.646400   -0.306733   -2.212227
C       2.174599    1.082480   -2.227257
N       2.938258    0.020387   -1.559684
C       2.731115   -0.118650   -0.099222
C       1.349173   -0.752867    0.160766
O       1.322669   -1.872864    0.998580
H       0.879258    2.085327    0.178473
H      -0.607279    1.978922   -0.773408
H      -0.653901    1.790572    0.979690
H      -0.761439   -0.481122    0.392472
H       0.072372   -1.661541   -1.452776
H       1.706496   -0.902230   -3.119612
H       2.645923    1.463400   -3.130389
H       1.686625    1.844805   -1.633970
H       3.478331   -0.816556    0.289251
H       2.881235    0.844003    0.404613
H       1.183688   -1.569090    1.901810
