19

C      -0.152050   -1.113453    0.500526
C      -0.068893    0.037070    0.163086
C       0.051251    1.439127   -0.237992
C       1.470534    1.948611   -0.201810
C       2.125992    2.542464   -1.204313
C       3.474450    3.021562   -0.788568
C       3.474745    4.081220    0.297438
C       3.595363    2.628539    0.677089
C       2.325360    1.867634    1.051957
H      -0.232833   -2.130723    0.793496
H      -0.359990    1.570770   -1.245918
H      -0.578936    2.046549    0.429105
H       1.724146    2.700847   -2.199646
H       4.309592    2.973684   -1.478665
H       4.366390    4.690760    0.404034
H       2.542989    4.603223    0.493188
H       4.542016    2.291044    1.081714
H       1.815110    2.300771    1.923086
H       2.536146    0.822035    1.310184
