16

O      -0.387109    0.823077    0.987857
C       0.412689    0.859174    0.096490
C       1.429799    2.010995   -0.113057
C       1.563568    2.923978    1.127243
C       2.812825    2.354930    1.820163
C       3.637571    1.867399    0.630474
O       2.679948    1.342721   -0.300040
C       1.059224    2.747444   -1.332912
N       0.736719    3.305654   -2.292379
H       0.539262    0.040415   -0.638986
H       1.718549    3.959734    0.818584
H       0.658357    2.865721    1.732818
H       3.335373    3.099115    2.424537
H       2.544073    1.513019    2.465195
H       4.195635    2.691411    0.164176
H       4.334965    1.060296    0.866200
