18

O      -0.159218    1.325675    0.318909
C       0.033391   -0.023132   -0.099236
C      -1.341191   -0.658405   -0.207252
N      -2.127303    0.049546   -1.218946
C      -3.496235   -0.406356   -1.303982
C      -4.315476    0.123281   -2.494915
O      -4.435416   -1.234165   -3.034384
C      -3.664843   -1.754799   -2.028059
O      -3.307637   -2.880358   -1.889307
H       0.674047    1.795760    0.227723
H       0.531705   -0.066005   -1.077978
H       0.642166   -0.582914    0.626043
H      -1.242172   -1.707723   -0.501325
H      -1.820388   -0.639053    0.788614
H      -2.105279    1.038378   -0.985796
H      -4.049893   -0.390840   -0.348625
H      -5.299555    0.539562   -2.273139
H      -3.755678    0.761736   -3.180547
