15

C      -0.025207    1.454120    0.143237
C       0.010944   -0.015529   -0.052507
N      -0.020855   -0.705556   -1.129839
C       0.035501   -2.047835   -0.725184
C       0.008924   -3.189354   -1.612530
O      -0.055028   -3.164558   -2.821618
C       0.106186   -2.067154    0.652362
N       0.249025   -3.041125    1.597317
O       0.090746   -0.795560    1.101916
H       0.877215    1.808121    0.652797
H      -0.094532    1.933018   -0.833544
H      -0.886410    1.752052    0.750644
H       0.052500   -4.166417   -1.067380
H       0.007640   -3.974967    1.303953
H      -0.084115   -2.802183    2.519823
