16

N      -0.040127    1.206235   -0.191670
C      -0.044473   -0.038258   -0.002624
O       1.064139   -0.876510    0.063332
C       0.508583   -2.217730    0.297497
C      -0.738438   -2.317398   -0.584575
C      -1.753215   -2.776512    0.507179
C      -2.607461   -1.471401    0.356344
C      -1.145975   -1.014489    0.206309
C      -0.634451   -2.031708    1.298453
H       0.916893    1.549050   -0.296524
H       1.335596   -2.923074    0.358841
H      -0.817690   -2.430800   -1.665537
H      -2.113030   -3.790086    0.680827
H      -3.238646   -1.393863   -0.532702
H      -3.140459   -1.124115    1.245228
H      -0.595024   -1.819052    2.366555
