12

O       0.104371    1.376608    0.129403
C       0.059476    0.028691    0.043160
C       0.025147   -0.764952   -1.101495
N      -0.013468   -2.055776   -0.633331
N      -0.006987   -2.134316    0.697093
C       0.037655   -0.870773    1.124575
C       0.027745   -0.390331   -2.454059
C       0.031588   -0.027167   -3.604481
H       0.109855    1.741476   -0.763702
H      -0.044702   -2.896459   -1.184719
H       0.052560   -0.645344    2.179374
H       0.034809    0.282426   -4.620356
