18

C      -0.012723    1.472007   -0.136605
C       0.070807   -0.046108    0.112310
C       0.697117   -0.349573    1.401626
N       1.170844   -0.592580    2.427624
C      -1.321292   -0.695049    0.066079
O      -1.974085   -0.505316   -1.218186
C      -2.267172   -1.908708   -1.282837
C      -1.010988   -2.705701   -1.381691
C      -1.482127   -2.210029   -0.026469
H       0.983208    1.920322   -0.152812
H      -0.499150    1.646517   -1.098613
H      -0.597682    1.962914    0.646339
H       0.687637   -0.501676   -0.670496
H      -1.947414   -0.270709    0.861206
H      -3.251266   -2.202774   -1.625944
H      -1.143894   -3.773571   -1.524438
H      -0.141558   -2.284421   -1.877884
H      -1.697342   -2.868353    0.802681
