15

N       0.008823    1.401154    0.150376
C      -0.009362    0.013113    0.063398
C      -1.194230   -0.737537    0.017695
N      -1.219048   -2.067015   -0.015488
C      -0.067593   -2.732677    0.001062
C       1.187444   -2.106289    0.045731
N       2.386003   -2.808549    0.115285
C       1.174442   -0.716142    0.069450
F       2.351381   -0.051634    0.081291
H       0.872671    1.826233   -0.153320
H      -0.799982    1.857046   -0.245734
H      -2.152357   -0.222068    0.008593
H      -0.121118   -3.819153   -0.021396
H       2.355818   -3.731519   -0.292297
H       3.193971   -2.284521   -0.187599
