17

C      -0.107957    1.542443    0.000883
C       0.066234    0.030492   -0.037649
N       0.902224   -0.485172   -1.171074
C       1.074123   -1.927325   -0.729635
C       1.919927   -1.361775    0.448989
C       2.305150   -0.292415   -0.614889
C       0.832349   -0.574496    1.169246
O       0.624692   -0.434302    2.344111
H       0.849761    2.070177    0.024234
H      -0.664221    1.885396   -0.875294
H      -0.660943    1.819980    0.902655
H      -0.922197   -0.439570   -0.105193
H       0.145188   -2.462213   -0.512427
H       1.668136   -2.479530   -1.461316
H       2.622840   -1.929482    1.056226
H       3.043075   -0.647661   -1.337329
H       2.557514    0.719385   -0.290817
