16

C      -0.101269    1.622313   -0.038781
C       0.069269    0.108665   -0.038760
C       0.726644   -0.614924   -1.231300
C       2.160820   -0.259948   -1.343558
C       1.763396   -1.303756   -0.288864
C       2.288427   -2.626457   -0.295670
N       2.702492   -3.707269   -0.287284
C       1.125781   -0.565714    0.877919
O       1.287794   -0.600883    2.059000
H       0.819863    2.139144   -0.322878
H      -0.888646    1.927710   -0.734613
H      -0.381737    1.964907    0.961498
H      -0.884136   -0.375711    0.208405
H       0.190788   -1.116739   -2.025729
H       2.704461   -0.681350   -2.182010
H       2.531808    0.703374   -1.008508
