17

C      -0.083079    1.552907    0.198802
C       0.000345    0.044517   -0.001573
C       0.787125   -0.646185    1.115154
O      -1.346165   -0.423619   -0.072848
C      -1.512368   -1.721855   -0.575930
C      -2.990809   -1.930459   -0.860870
O      -3.464861   -2.983869   -1.193197
H       0.917218    1.994934    0.215482
H      -0.656845    2.014698   -0.608786
H      -0.578962    1.782970    1.147066
H       0.491771   -0.165685   -0.967177
H       0.302581   -0.474332    2.081704
H       0.862955   -1.725609    0.954828
H       1.805296   -0.247861    1.163022
H      -0.957222   -1.870822   -1.519325
H      -1.177457   -2.506578    0.119682
H      -3.599294   -1.007025   -0.740532
