20

C       0.757678    0.228692   -0.900462
C      -0.178382    0.318753    0.287298
O       0.072381    1.004088    1.256764
C      -1.452532   -0.473128    0.237695
C      -2.539884   -0.169276    1.259610
C      -3.463985   -1.407857    1.247654
C      -2.553267   -2.587266    0.833642
C      -1.475291   -1.957124   -0.032902
N      -1.859726   -1.013644   -1.076976
H       1.658385    0.806184   -0.690083
H       1.021604   -0.810353   -1.121430
H       0.257939    0.611859   -1.795109
H      -2.057217   -0.032337    2.231367
H      -3.075878    0.759752    1.039037
H      -3.947468   -1.575189    2.212808
H      -4.272521   -1.278273    0.520244
H      -2.075199   -3.039263    1.710753
H      -3.098584   -3.385368    0.318036
H      -0.567279   -2.518122   -0.235993
H      -2.869802   -0.965245   -1.188419
