19

O      -0.015661    1.437789    0.304640
C      -0.010732    0.073285   -0.079454
C      -1.382494   -0.538572   -0.009498
C      -1.962278   -1.133956    1.244769
C      -1.722677   -2.008015    0.023992
C      -2.817824   -2.202007   -1.004082
C      -4.169399   -1.538750   -0.809094
C      -3.081465   -0.829982   -1.570654
O      -2.283422    0.113317   -0.892101
H      -0.686587    1.868376   -0.237233
H       0.387041   -0.049802   -1.099814
H       0.663184   -0.445925    0.609461
H      -1.281338   -1.270119    2.078965
H      -2.972293   -0.873725    1.535982
H      -0.950977   -2.767370    0.073888
H      -2.752775   -3.079538   -1.635574
H      -4.992816   -1.935868   -1.394098
H      -4.456047   -1.171082    0.168533
H      -3.195573   -0.606500   -2.626009
