18

O      -0.633530    0.401828    0.361662
C       0.313973    0.744134   -0.295884
C       1.163228    1.964495   -0.031323
C       1.268060    2.865186   -1.266326
C       2.407095    3.870240   -1.180164
O       3.283182    3.791717   -0.343246
C       2.411858    4.964484   -2.199275
C       2.629670    6.354178   -1.674308
N       3.677171    5.677866   -2.422667
H       0.639699    0.149179   -1.183539
H       0.758362    2.503886    0.828250
H       2.175446    1.629899    0.231913
H       1.446760    2.265288   -2.172540
H       0.330409    3.401799   -1.456609
H       1.786988    4.824559   -3.076539
H       2.147241    7.183011   -2.184005
H       2.740363    6.458388   -0.598622
H       4.351238    5.291789   -1.760046
