23

C      -0.080607    1.458058   -0.104719
O      -0.089244    0.080119    0.186411
C      -1.340339   -0.568408    0.001776
C      -1.678900   -0.762114   -1.479956
C      -1.246350   -1.914659    0.727203
C      -0.863464   -1.817690    2.221213
C      -1.895671   -1.048164    3.061844
C      -0.731091   -3.227243    2.763210
O       0.295946   -3.751312    3.108291
H       0.894818    1.844134    0.201699
H      -0.215135    1.667743   -1.175570
H      -0.864407    1.996294    0.451756
H      -2.131822    0.045257    0.464269
H      -2.632856   -1.287742   -1.588643
H      -1.768999    0.194969   -2.001089
H      -0.899439   -1.350862   -1.973695
H      -2.208371   -2.432795    0.621350
H      -0.496141   -2.524925    0.209638
H       0.117003   -1.342248    2.299670
H      -2.888956   -1.507241    2.992283
H      -1.606714   -1.030926    4.117287
H      -1.980478   -0.011540    2.726927
H      -1.700863   -3.782042    2.817740
