19

C      -0.951710    1.160598    0.131086
C       0.192463    0.148355   -0.013841
N       0.896320    0.445284   -1.269715
C       1.808238   -0.411973   -1.865967
O       1.834807   -0.597591   -3.070320
N       2.687156   -1.044989   -1.001584
C       3.312147   -0.377224    0.138987
C       2.389680   -0.010848    1.266894
C       1.078981    0.193511    1.206655
H      -0.557500    2.179457    0.195301
H      -1.634054    1.103794   -0.723396
H      -1.530951    0.954420    1.034983
H      -0.259037   -0.857294   -0.068413
H       0.280696    0.803117   -1.987859
H       3.334269   -1.598849   -1.545373
H       4.060816   -1.075053    0.529757
H       3.872728    0.519956   -0.175951
H       2.886006    0.096732    2.228631
H       0.551154    0.415088    2.131475
