18

C      -0.076536    1.543353    0.035021
C       0.158828    0.060141   -0.021223
O      -0.489866   -0.738627    0.977528
C       0.944568   -0.727324    0.944569
C       1.528657   -1.978108    0.267397
O       1.073469   -3.177850    0.850452
C       1.125974   -1.837179   -1.212559
N      -0.327526   -1.994202   -1.406969
C       0.266099   -0.639923   -1.375433
H       0.675469    2.079845   -0.553743
H      -1.063115    1.793841   -0.370282
H      -0.031201    1.899523    1.066845
H       1.426057   -0.305661    1.824791
H       2.619773   -1.975384    0.361318
H       0.117881   -3.177084    0.699460
H       1.801910   -2.188348   -1.985347
H      -0.510729   -2.256940   -2.372755
H       0.263904   -0.036457   -2.277081
