21

C      -0.546908    1.436187   -0.125625
C       0.057236    0.034486   -0.080733
C       1.279798   -0.187980   -0.986287
C       1.863526   -1.474778   -0.405321
O       1.596285   -1.429679    0.997723
C       0.588523   -0.454833    1.291422
C       1.200094    0.636909    2.190306
C       1.799558    0.054089    3.453271
O       1.502517    0.406006    4.567455
H       0.191629    2.206109    0.118268
H      -0.930756    1.653061   -1.127413
H      -1.382180    1.536828    0.575379
H      -0.715586   -0.682365   -0.387374
H       1.016250   -0.279688   -2.043029
H       1.988516    0.642758   -0.887815
H       1.381131   -2.359399   -0.847547
H       2.944422   -1.573510   -0.547836
H      -0.212853   -0.953729    1.852402
H       2.005886    1.140728    1.638927
H       0.452165    1.379890    2.479722
H       2.551005   -0.743898    3.279844
