23

C      -0.173325    1.576550    0.151592
C       0.057660    0.066599    0.027981
C      -1.285461   -0.662980   -0.156556
C       1.043548   -0.289122   -1.116220
C       1.617482   -1.673224   -0.747633
C       1.706878   -1.662273    0.787009
C       2.828718   -0.792731    1.388190
O       1.910048    0.276928    1.691624
C       0.772910   -0.512561    1.263326
H       0.762899    2.088813    0.385334
H      -0.572279    1.986258   -0.782904
H      -0.891710    1.805244    0.946889
H      -1.780103   -0.330986   -1.075532
H      -1.165920   -1.749826   -0.218565
H      -1.961638   -0.453779    0.679490
H       0.563368   -0.276903   -2.099510
H       1.846848    0.455436   -1.141042
H       0.941866   -2.470097   -1.076122
H       2.586301   -1.867992   -1.219445
H       1.586107   -2.646283    1.241298
H       3.292695   -1.196652    2.297403
H       3.620634   -0.474445    0.697422
H       0.093164   -0.705854    2.102263
