11

N       0.924826    0.120903   -0.596547
C      -0.153604    0.537515   -0.072729
N      -1.319051   -0.197314   -0.240080
C      -2.544664    0.154487    0.279944
N      -2.727411    1.207924    0.976886
C      -3.601759   -0.790177   -0.044221
N      -4.471682   -1.514741   -0.278264
H       1.690044    0.759818   -0.389713
H      -0.306850    1.438331    0.522737
H      -1.237835   -1.044212   -0.784377
H      -3.696844    1.295251    1.269869
