15

C      -0.017305    1.557237    0.050115
C       0.024633    0.063706    0.050896
C       0.016075   -0.752592   -1.050261
O       0.063765   -2.082266   -0.654125
C       0.101897   -2.079632    0.690180
N       0.220595   -3.313229    1.281780
C       0.079200   -0.800360    1.184853
C      -0.035825   -0.477149   -2.424889
N      -0.081184   -0.217365   -3.555821
H       0.869849    1.974544    0.538729
H      -0.062236    1.950027   -0.968169
H      -0.891519    1.925578    0.597855
H      -0.126931   -4.078275    0.720706
H      -0.094786   -3.354641    2.239015
H       0.102251   -0.511658    2.223487
