17

C      -0.084020    1.525689   -0.103598
C       0.007092    0.037801    0.054123
C       1.233572   -0.782972   -0.241632
C       0.652974   -0.789003    1.164114
C       1.421865   -0.275495    2.351526
N      -0.276505   -1.877889    1.417069
C      -1.243764   -1.705799    0.610415
O      -1.229208   -0.631868   -0.217973
H       0.860408    1.994734    0.185098
H      -0.290132    1.797926   -1.144123
H      -0.880511    1.938260    0.523259
H       1.141509   -1.679564   -0.846002
H       2.152175   -0.222424   -0.382510
H       2.039300    0.585583    2.079463
H       0.744752    0.025877    3.156848
H       2.082275   -1.056394    2.741716
H      -2.113644   -2.344003    0.512210
