21

C      -0.339746    1.358121    0.138307
O       0.359520    0.164026   -0.129957
C       0.862165   -0.455836    1.023526
C      -0.070457   -1.369788    1.847203
C       0.010345   -2.519146    0.780253
C       0.396985   -3.565603    1.850223
C       1.198184   -4.794865    1.449761
C       1.135097   -2.275106    2.277281
C       1.435881   -1.853948    0.794031
H       0.297744    2.095844    0.651139
H      -0.656306    1.774333   -0.821200
H      -1.231244    1.185239    0.759947
H       1.483977    0.245542    1.604109
H      -0.935038   -1.126308    2.466656
H      -0.633301   -2.630526   -0.091899
H      -0.429507   -3.841896    2.518271
H       2.027972   -4.538485    0.783050
H       1.619301   -5.294900    2.329271
H       0.565701   -5.523066    0.929656
H       1.788913   -2.104104    3.134821
H       2.299071   -2.136595    0.192057
