14

C       0.065667    1.518901    0.084817
C       0.166730   -0.003103   -0.020301
C       0.673897   -0.486053   -1.393165
C       0.969963   -1.998296   -1.425852
O       1.060266   -2.670181   -0.437182
C      -0.229113   -0.146057   -2.493812
N      -0.953306    0.095773   -3.361613
H       1.040130    1.995153   -0.069857
H      -0.628624    1.927141   -0.656109
H      -0.292824    1.809455    1.076098
H       0.853016   -0.403099    0.730806
H      -0.806039   -0.466530    0.172902
H       1.639851   -0.002765   -1.615473
H       1.119297   -2.417503   -2.442539
