14

C       0.005448    1.561289   -0.102904
O       1.479718    1.548365    0.105902
C       1.251411    0.333679    0.924733
C       1.306827   -1.268294    0.900656
O      -0.183500   -1.127766    1.061575
C       0.066548    0.025899    0.104331
C       0.608082   -0.722979   -1.116532
C       1.445093   -1.605583   -0.572003
H      -0.497632    2.133655    0.682081
H      -0.251097    1.928490   -1.100214
H       1.055280    0.657752    1.950422
H       1.761036   -1.877639    1.681425
H       0.338600   -0.531584   -2.144778
H       2.073556   -2.366154   -1.009671
