23

C       0.104893    1.249867    0.689149
C       0.121065   -0.139680    0.035778
C       1.102453   -1.083139    0.747696
C      -1.269364   -0.747690    0.015995
C      -2.342426   -0.416821   -1.016030
C      -1.932530    0.223454   -2.343691
C      -1.317474   -0.961654   -3.119993
O      -0.873530   -1.902954   -2.137540
C      -1.693097   -1.775666   -1.000923
H       1.103781    1.699103    0.684521
H      -0.575756    1.930632    0.167688
H      -0.225404    1.188050    1.733056
H       0.467106   -0.032069   -0.997852
H       1.144679   -2.052697    0.243230
H       2.113045   -0.661269    0.762743
H       0.799404   -1.254686    1.787723
H      -1.675098   -0.920406    1.012907
H      -3.359472   -0.276385   -0.669357
H      -2.799635    0.638120   -2.864685
H      -1.211030    1.035930   -2.213972
H      -2.070181   -1.429741   -3.772644
H      -0.453329   -0.688475   -3.732709
H      -2.207693   -2.688329   -0.713942
