20

C       0.048750    1.535711   -0.143487
C       0.001325    0.025943    0.005627
C      -1.213228   -0.607144   -0.649755
C       1.300851   -0.750127   -0.031152
C       0.524331   -0.644987    1.259929
C       1.078650    0.123766    2.453404
C       1.936939   -0.702320    3.298485
C       2.633035   -1.400564    3.986021
H       0.953398    1.973635    0.285942
H       0.026299    1.813904   -1.203673
H      -0.815032    2.010728    0.337343
H      -1.234580   -0.394211   -1.725342
H      -1.214849   -1.694499   -0.525808
H      -2.143943   -0.220089   -0.217640
H       1.327709   -1.704796   -0.546190
H       2.224693   -0.183807   -0.103988
H      -0.012411   -1.542128    1.557253
H       1.646936    0.997272    2.114260
H       0.251416    0.518663    3.058934
H       3.253026   -2.009536    4.595673
