16

N       0.051327    1.312428   -0.126998
C       0.053064   -0.012859    0.192636
O       1.038040   -0.579173    0.627795
C      -1.280800   -0.725126   -0.028173
C      -1.100777   -2.235184   -0.118931
C      -2.367614   -3.013849    0.142144
O      -3.419590   -2.525893    0.472309
C      -2.244421   -4.550311   -0.027194
O      -3.175095   -5.290870    0.123333
H       0.868193    1.856004    0.099754
H      -0.788232    1.795636   -0.394844
H      -1.939674   -0.493123    0.817423
H      -1.786189   -0.332001   -0.916452
H      -0.695738   -2.539759   -1.094187
H      -0.333345   -2.550435    0.602806
H      -1.230012   -4.919659   -0.299726
