21

C      -0.080446   -1.210895    0.027718
C      -0.069239   -0.008870    0.006187
C      -0.021179    1.447454   -0.017074
C       1.415054    2.002139    0.066424
C       1.450390    3.526157    0.036147
C       2.856474    4.141791    0.065700
C       2.651606    5.453703   -0.703893
C       1.629634    5.031098   -1.765751
O       0.844050    3.995419   -1.176570
H      -0.105430   -2.271976    0.044033
H      -0.487619    1.824420   -0.933883
H      -0.615694    1.846189    0.815945
H       1.891751    1.649662    0.988549
H       2.002586    1.612739   -0.772459
H       0.861136    3.913675    0.885108
H       3.229371    4.284144    1.082745
H       3.561758    3.491388   -0.465169
H       2.225715    6.219250   -0.046522
H       3.570985    5.854729   -1.137216
H       0.966135    5.846690   -2.073975
H       2.131350    4.646265   -2.666269
