20

C      -1.077051    0.677905   -1.390502
C       0.054020   -0.230018   -0.926096
C       1.493698   -0.011484   -1.459651
C       2.036727   -0.421753   -0.066128
C       3.277863    0.256743    0.498277
C       0.613517   -0.130292    0.543182
C       0.478691    1.234116    1.158217
O       0.023051    1.445053    2.255449
H      -0.823095    1.737658   -1.287358
H      -1.303684    0.496639   -2.446861
H      -1.993295    0.497039   -0.818104
H      -0.233727   -1.274254   -1.088199
H       1.813443   -0.594982   -2.326935
H       1.686482    1.047202   -1.668117
H       2.178342   -1.507512   -0.041994
H       3.204124    1.348189    0.459361
H       3.448182   -0.029256    1.541852
H       4.165633   -0.032268   -0.074834
H       0.231046   -0.857429    1.262854
H       0.833727    2.082812    0.529237
