19

C       0.389070    1.426560    0.496748
C      -0.321229    0.331898   -0.320128
C       0.500237   -0.204157   -1.400309
C       1.203440   -0.643182   -2.275030
C       2.042707   -1.201545   -3.342701
O       2.408673   -2.535562   -3.111067
C       1.286323   -1.096388   -4.692890
C       0.957186    0.276488   -5.218038
O       1.005715   -2.121170   -5.271224
H       1.303860    1.038635    0.952479
H       0.661827    2.272634   -0.139941
H      -0.265941    1.791913    1.293042
H      -0.614752   -0.491064    0.343866
H      -1.256115    0.729407   -0.735777
H       2.954112   -0.587317   -3.432997
H       1.927511   -3.043052   -3.786706
H       1.886671    0.807434   -5.455277
H       0.346333    0.196323   -6.117649
H       0.439510    0.861241   -4.453030
