19

O       0.247620    1.300503    0.118789
C       0.066250   -0.096292    0.059950
C      -1.375311   -0.466707   -0.058931
C      -2.475196    0.309759   -0.053824
C      -3.736181   -0.526653   -0.254068
C      -3.252102   -1.971565   -0.009892
C      -1.729055   -1.924570   -0.262320
C      -2.591980    1.715471    0.064072
C      -2.838913    2.891573    0.158831
H       1.182898    1.475510    0.255461
H       0.605451   -0.539423   -0.798707
H       0.475617   -0.596789    0.957507
H      -4.540687   -0.224406    0.423302
H      -4.118236   -0.384982   -1.274037
H      -3.438752   -2.247170    1.032860
H      -3.764320   -2.705504   -0.637004
H      -1.474219   -2.234447   -1.287183
H      -1.168033   -2.591957    0.403653
H      -3.002139    3.936959    0.241885
