17

C      -0.015325    1.484349    0.049565
C      -0.034194   -0.003965   -0.025407
C      -0.053521   -0.830199   -1.076979
C       0.006440   -2.248639   -0.490919
O      -0.702788   -2.078306    0.739321
C       0.032742   -0.946362    1.198467
C       1.486337   -1.505374    1.179383
O       1.569411   -2.923440    1.355442
C       1.467358   -2.397232    0.028171
H       0.887985    1.848586    0.555661
H      -0.048508    1.937148   -0.944902
H      -0.868245    1.863138    0.626641
H      -0.048618   -0.578156   -2.128620
H      -0.411121   -3.068754   -1.072394
H      -0.358221   -0.581336    2.147657
H       2.340021   -0.911798    1.490252
H       2.304713   -2.559894   -0.642635
