21

C      -1.616302    0.241293    0.586143
C      -0.583118   -0.855162    0.561954
O       0.727650   -0.563569    0.030973
C       0.614366   -0.928528    1.417941
C       1.053016    0.138040    2.381503
O       0.938479    1.439156    1.871168
C       0.779520    0.014297    3.852194
C       2.204190   -0.103877    3.343820
C       2.971367   -1.402202    3.458030
H      -1.216537    1.159183    1.015574
H      -1.976985    0.441516   -0.428639
H      -2.475640   -0.082272    1.183868
H      -0.960611   -1.815644    0.203450
H       0.994489   -1.924621    1.643039
H       1.185077    1.370528    0.938150
H       0.483117    0.922352    4.365191
H       0.291824   -0.888917    4.207153
H       2.803031    0.791842    3.483638
H       2.317014   -2.275576    3.373548
H       3.743477   -1.487049    2.685305
H       3.467063   -1.469093    4.432925
