19

C       0.562790    1.713239    0.105456
C      -0.054583    0.323580   -0.030644
N       0.541446   -0.380098   -1.163069
C       1.690199   -1.243797   -0.910749
C       0.375650   -1.820767   -1.312761
C      -0.421501   -2.681608   -0.336385
C      -1.861646   -2.618109   -0.568520
C      -3.043364   -2.557670   -0.779406
H       1.637066    1.645364    0.306883
H       0.428586    2.284441   -0.817188
H       0.097854    2.263243    0.929550
H       0.064060   -0.220137    0.921991
H      -1.130796    0.403727   -0.219950
H       2.514664   -1.176828   -1.615948
H       1.993541   -1.393436    0.126562
H       0.238439   -2.126162   -2.348943
H      -0.081988   -3.720373   -0.443312
H      -0.200394   -2.399599    0.698498
H      -4.088714   -2.507180   -0.958090
