15

N      -0.431801   -1.118828   -0.230114
C      -0.272387    0.014967   -0.075466
C      -0.043310    1.446652    0.076653
O       0.025542    1.838323    1.503770
C       1.386153    1.999210    1.350510
N       2.402808    1.803891    2.061319
C       3.480428    1.629808    1.032922
C       2.752657    1.182552   -0.295872
C       1.433904    1.950549   -0.135949
H      -0.815008    2.020747   -0.438223
H       4.040265    2.563087    0.894971
H       4.181663    0.872598    1.389780
H       3.309714    1.428811   -1.201800
H       2.584934    0.101358   -0.272414
H       1.422261    2.921293   -0.635830
