22

C       0.053165    1.324072   -0.221345
O      -0.059677   -0.089142   -0.090946
C       0.577534   -0.630625    0.962319
N       0.505547   -1.865483    1.192002
C       1.216202   -2.406134    2.335968
C       0.279725   -3.352164    3.125017
C       1.080335   -4.141162    4.160446
C      -0.857364   -2.563682    3.794253
O      -0.260601   -4.305842    2.215826
H       1.101127    1.637497   -0.299594
H      -0.468304    1.589196   -1.141465
H      -0.418848    1.842850    0.621545
H       1.151281    0.085526    1.570968
H       2.055634   -3.006433    1.963191
H       1.624178   -1.625492    2.999212
H       1.538457   -3.475051    4.898570
H       0.423476   -4.839057    4.687331
H       1.868307   -4.721426    3.671684
H      -1.421557   -1.995320    3.049001
H      -1.545116   -3.256046    4.287296
H      -0.474647   -1.861296    4.543725
H      -0.486321   -3.805188    1.419342
