17

N       0.034566    1.353295    0.176525
C      -0.071472   -0.015265    0.078983
N      -1.189486   -0.614018    0.199192
C      -1.234822   -2.042837    0.022591
C      -1.395832   -2.506436   -1.449926
O      -0.032354   -2.985262   -1.490939
C       0.125465   -2.779377   -0.074107
C       1.314708   -1.922504    0.288237
O       1.159587   -0.559632   -0.121272
H       0.865595    1.749628   -0.233340
H      -0.823009    1.846300   -0.016418
H      -1.958143   -2.473075    0.718940
H      -2.115705   -3.320385   -1.604886
H      -1.577675   -1.704089   -2.171831
H       0.181817   -3.733406    0.468831
H       1.464794   -1.953139    1.376257
H       2.222125   -2.279426   -0.205143
