17

C      -0.130067    1.585412   -0.021373
C       0.016540    0.071199    0.021151
C       1.221030   -0.629495   -0.665605
C       2.137899   -0.222324    0.522709
O       3.112894   -1.248488    0.757948
C       2.378310   -2.400439    0.590833
O       2.820547   -3.503517    0.700981
C       0.997466   -1.880734    0.262661
C       0.785905   -0.619743    1.180491
H       0.804667    2.110189    0.195658
H      -0.470864    1.910754   -1.010014
H      -0.874999    1.919886    0.708429
H      -0.940113   -0.412417   -0.201774
H       1.485474   -0.654235   -1.723654
H       2.595401    0.756674    0.625381
H       0.199680   -2.595359    0.078406
H       0.549944   -0.633259    2.245456
