18

C       0.010409   -1.231332   -0.018288
C      -0.001724   -0.029099   -0.004660
C      -0.002910    1.428635    0.034522
C      -0.735249    1.977380    1.281308
C      -0.641395    3.504092    1.316669
O       0.701453    3.954707    1.287967
C       1.376696    3.538018    0.114283
C       1.428104    2.013750   -0.007661
H       0.016202   -2.292868   -0.038353
H      -0.538803    1.794773   -0.854564
H      -1.784182    1.663373    1.276508
H      -0.270149    1.562296    2.182171
H      -1.201277    3.932213    0.465885
H      -1.078632    3.900695    2.237485
H       0.884391    3.967286   -0.776758
H       2.384488    3.958901    0.174156
H       2.009242    1.600586    0.824048
H       1.930645    1.725837   -0.936878
