17

C       0.281799    1.479494    0.199701
C      -0.323400    0.123510   -0.186318
C       0.375404   -0.474405   -1.380356
O       1.679395   -1.008132   -1.182208
C       0.630236   -1.938440   -1.542135
C       0.229974   -2.870876   -0.514105
C      -0.112760   -3.663551    0.321095
C       0.719229   -2.491487   -2.874145
C       0.780336   -2.948576   -3.983290
H       1.341080    1.370577    0.450118
H       0.201860    2.201143   -0.620432
H      -0.232526    1.901184    1.067771
H      -0.260581   -0.574621    0.653021
H      -1.386359    0.239332   -0.432615
H       0.270016    0.079532   -2.315770
H      -0.409045   -4.365318    1.061474
H       0.840999   -3.357133   -4.961878
