17

O      -0.075405   -0.029889    0.068970
C      -0.027693    1.162380   -0.088041
C       1.259539    1.970274   -0.089660
C       1.316602    2.936719   -1.238238
O       0.299912    3.988566   -1.310392
C       1.142875    4.204834   -2.481147
C       2.477722    3.851673   -1.754766
C       2.880471    2.841090   -2.850378
C       1.345159    2.691751   -2.789552
H      -0.946645    1.767221   -0.241637
H       1.296298    2.546985    0.845521
H       2.112451    1.285749   -0.105791
H       0.907884    5.031125   -3.150342
H       3.090132    4.523129   -1.152856
H       3.291071    3.262594   -3.771462
H       3.471345    1.978509   -2.531366
H       0.676302    2.047400   -3.360004
