13

N      -0.050607    1.276028   -0.074681
C      -0.030664    0.014311   -0.054424
C      -1.240827   -0.896430   -0.042500
C      -0.662360   -2.242335   -0.500439
C       0.781836   -2.143857    0.008503
O       1.108402   -0.745204   -0.041797
H       0.900894    1.647950   -0.062149
H      -1.626572   -0.957775    0.981947
H      -2.037174   -0.499811   -0.672041
H      -1.189192   -3.110655   -0.100026
H      -0.671978   -2.311210   -1.592578
H       0.873136   -2.493430    1.045140
H       1.508896   -2.680392   -0.605337
