21

C      -0.033835    1.451067   -0.133274
C       1.517903    1.469456   -0.100172
C       1.481301    0.082981    0.609476
C       0.010354   -0.079294    0.122401
C       2.475559   -0.945496    0.187330
C       4.031242   -0.919594    0.237905
C       3.571898   -2.126883   -0.607088
C       2.515108   -2.477278    0.462014
O       2.578349   -1.255771   -1.273937
H      -0.463572    1.991329    0.715351
H      -0.522710    1.795604   -1.047137
H       1.947632    1.373044   -1.100537
H       2.010648    2.292830    0.422000
H       1.528739    0.193318    1.698594
H      -0.711541   -0.503753    0.823903
H      -0.020509   -0.648894   -0.809959
H       4.500331   -0.111006   -0.324087
H       4.516179   -1.113128    1.198489
H       4.158057   -2.789044   -1.244024
H       2.861306   -2.813352    1.443106
H       1.652822   -3.036556    0.096820
