18

C      -0.174242    1.550834   -0.005866
C       0.031373    0.043656    0.023652
C       1.196064   -0.661109   -0.751830
C       2.177214   -0.143835    0.343877
C       0.936197   -0.651134    1.110581
O       0.798637   -0.613589    2.484265
C       0.996063   -1.901351    0.170953
O      -0.093376   -2.775200    0.042174
H       0.753642    2.120878    0.078060
H      -0.665115    1.854499   -0.937014
H      -0.823254    1.856890    0.821866
H      -0.948881   -0.434066   -0.105458
H       1.362074   -0.663271   -1.827086
H       3.098261   -0.716699    0.481399
H       2.374227    0.925917    0.364534
H       0.117372   -1.249905    2.730248
H       1.878018   -2.533155    0.304690
H      -0.848311   -2.295343   -0.312119
