20

C       0.184470    1.493905    0.434688
C      -0.001057    0.006335    0.105929
C       0.611628   -0.379921   -1.206816
C       0.994314   -1.675326   -1.806800
C      -0.008668   -1.479676   -3.019873
C       0.166658    0.000340   -2.649475
C       1.183517    0.619206   -3.280497
C       2.431841    0.433662   -2.424817
N       2.027906   -0.604002   -1.434191
H       1.246613    1.743140    0.523311
H      -0.246050    2.125510   -0.349042
H      -0.301102    1.750630    1.380913
H       0.449668   -0.611309    0.891060
H      -1.071190   -0.236861    0.084224
H       1.158477   -2.623166   -1.303243
H       0.287399   -1.773398   -4.029946
H      -0.956319   -1.959347   -2.748535
H       1.265884    0.656970   -4.363565
H       3.246240    0.084798   -3.071177
H       2.808828    1.294351   -1.857233
