22

C      -0.039620    1.531075    0.054334
C       0.010735    0.017802    0.019281
C       1.353408   -0.694810   -0.195161
C       0.653922   -0.753948    1.114568
N       1.174123   -0.194739    2.428964
C      -0.172219   -0.689980    2.994094
C       0.233161   -1.875018    2.077068
C      -0.492671   -3.163278    1.787003
C       1.645121   -1.641713    2.677675
H       0.800956    1.930258    0.628685
H       0.000898    1.952418   -0.956167
H      -0.961344    1.887638    0.527385
H      -0.841478   -0.458494   -0.462823
H       1.374782   -1.577296   -0.827705
H       2.237682   -0.067857   -0.266513
H      -0.151510   -0.850943    4.076340
H      -1.024484   -0.075549    2.693791
H      -1.478178   -2.969214    1.349402
H       0.072973   -3.782701    1.082254
H      -0.641248   -3.746844    2.701804
H       2.512547   -1.925790    2.076972
H       1.793988   -1.868235    3.737879
