19

O      -0.077581    1.336906    0.025819
C       0.024681   -0.040089    0.004163
C       0.665881   -0.982897    1.071587
C       0.046414   -1.904401   -0.020989
C       0.061325   -3.419653   -0.032033
C      -0.608588   -3.985535   -1.198737
C      -1.165648   -4.427139   -2.167833
C      -1.205574   -0.972893   -0.004129
C       0.655561   -0.952539   -1.093685
H       0.810572    1.709592    0.013721
H       1.758132   -0.980654    1.144856
H       0.191681   -1.002121    2.056818
H       1.100952   -3.771970    0.001280
H      -0.416825   -3.793532    0.883088
H      -1.655861   -4.828210   -3.019914
H      -1.813405   -0.988144    0.904768
H      -1.819647   -0.968075   -0.907420
H       0.172377   -0.950721   -2.073337
H       1.747254   -0.948668   -1.175358
