20

C       0.009853    1.492294   -0.006065
C       0.018444   -0.012413   -0.020854
C      -1.308193   -0.792652   -0.184949
C      -0.775303   -2.073557    0.486332
C      -0.410147   -1.509410    1.870659
N       0.686509   -0.739123    1.187995
C       0.761144   -1.887758    0.171450
C       0.966501   -0.836107   -0.920401
O       0.550905   -1.035942   -2.247006
H       1.015891    1.887309    0.161867
H      -0.362124    1.881432   -0.960319
H      -0.641003    1.872825    0.788720
H      -2.147015   -0.349385    0.359644
H      -1.581355   -0.912016   -1.233961
H      -1.312825   -3.010908    0.337295
H      -1.155614   -0.916088    2.411807
H       0.050084   -2.232261    2.550879
H       1.447743   -2.710087    0.379519
H       1.988668   -0.441040   -0.857506
H       1.240165   -1.516023   -2.715252
