21

C      -0.512238    1.294405    0.075819
C       0.286403   -0.001466   -0.111498
C       0.872088   -0.547016    1.179814
C       2.098131    0.172143    1.713720
C      -0.042852   -1.125466    2.249035
O      -1.366235   -1.431426    1.860324
C      -1.295682   -2.724339    1.286747
O      -0.024362   -2.832105    0.670061
C       0.840779   -2.045587    1.460499
H       0.096508    2.090431    0.517590
H      -0.885374    1.662321   -0.885214
H      -1.371379    1.121886    0.730329
H      -0.350576   -0.762135   -0.568789
H       1.112298    0.166702   -0.814873
H       1.882296    1.226530    1.916094
H       2.454982   -0.273760    2.648409
H       2.919811    0.127690    0.990100
H       0.083755   -0.892082    3.301832
H      -1.409429   -3.497331    2.066288
H      -2.074834   -2.824715    0.526285
H       1.704900   -2.570594    1.856099
