16

C      -0.152251    1.551389    0.076465
C      -0.011917    0.049409    0.037916
C       1.320657   -0.632503   -0.244308
C       2.540368    0.101995   -0.379978
C       3.583474    0.696906   -0.459121
C       0.689199   -0.678519    1.165886
O       1.253286    0.098925    2.166159
C       0.167379   -1.955137    1.607339
N      -0.247076   -2.979538    1.948964
H       0.712481    2.018042    0.548579
H      -0.250012    1.946715   -0.939179
H      -1.045664    1.834597    0.640763
H      -0.860133   -0.486345   -0.377398
H       1.271556   -1.560108   -0.805953
H       4.498378    1.227984   -0.555814
H       2.205713   -0.060791    2.180430
