13

O      -0.156554    0.033238    0.094957
C      -0.007464    1.230181    0.002066
C       1.288417    1.899088    0.009361
N       1.480623    3.331194    0.357967
C       1.751400    2.923491   -1.007638
C       3.142398    2.193120   -1.056734
O       3.696783    2.169299    0.253311
C       2.692120    1.212657   -0.070123
H      -0.874505    1.922721   -0.117405
H       0.558802    3.770718    0.383793
H       1.201325    3.303219   -1.859240
H       3.804158    2.117127   -1.909787
H       2.894268    0.158439    0.059646
