16

O      -0.048588    0.043524   -0.131952
C       0.005091    1.243891   -0.052208
N      -1.067570    2.156481   -0.078996
C      -0.502393    3.485721    0.259784
C       0.764619    3.554988   -0.607661
C       1.788400    3.974114    0.491292
C       2.613953    2.654315    0.312017
C       1.142996    2.228613    0.149489
C       0.652210    3.236775    1.261814
H      -1.960679    1.851793    0.278735
H      -1.254913    4.270894    0.338812
H       0.845450    3.687661   -1.687161
H       2.171638    4.976147    0.685417
H       3.244744    2.585079   -0.578318
H       3.141320    2.277863    1.192689
H       0.612021    3.006418    2.327913
