13

O       0.393090    0.082166    1.055470
C       0.455790    0.795637    0.088235
C       1.386685    1.976125    0.006399
C       1.589766    2.740957    1.305946
N       2.625291    1.920496    0.749325
C       3.205322    0.777531    1.272624
O       3.401359   -0.241799    0.664438
C       3.690373    0.977967    2.650661
N       4.065101    1.108289    3.735806
H      -0.187865    0.640782   -0.800830
H       1.423932    2.507062   -0.940590
H       1.756524    3.812854    1.265330
H       1.051314    2.359777    2.169588
