13

N       0.068293   -1.103232   -0.052426
C      -0.002446    0.053604   -0.019250
C      -0.037772    1.460320    0.016386
C      -1.060115    2.329286    0.022213
C      -0.312773    3.673283    0.045485
C       0.764769    3.450692   -1.062118
C       1.177442    2.432306    0.040615
O       0.736878    3.404605    1.031313
H      -2.125165    2.155246    0.001889
H      -0.862247    4.599687    0.197344
H       0.453791    3.078089   -2.039511
H       1.461125    4.287978   -1.136832
H       2.178895    2.033630    0.185822
