25

C      -0.770464    1.481212   -0.877774
C      -0.489338    0.057062   -0.389310
C      -1.763631   -0.784985   -0.254788
C      -1.530889   -2.264924    0.102661
C      -0.778828   -2.485637    1.432516
C      -1.443775   -1.900841    2.684781
C      -2.885159   -3.021304    0.059073
C      -2.767888   -4.462931    0.242226
C      -2.652976   -5.651367    0.385975
H       0.152196    2.063633   -0.963529
H      -1.253486    1.474915   -1.861324
H      -1.436042    2.012586   -0.188127
H       0.200172   -0.439405   -1.085297
H       0.032841    0.103226    0.573665
H      -2.427858   -0.322762    0.488316
H      -2.311367   -0.743052   -1.206538
H      -0.904660   -2.700760   -0.687741
H      -0.647221   -3.564643    1.568953
H       0.230232   -2.069205    1.335982
H      -0.841729   -2.119882    3.572091
H      -1.552199   -0.813004    2.624988
H      -2.437994   -2.325675    2.857429
H      -3.562505   -2.611359    0.819407
H      -3.367689   -2.822955   -0.906569
H      -2.562760   -6.701485    0.513136
