13

C      -0.032153    1.511672   -0.022036
C      -0.003303    0.012276   -0.020376
N      -0.026580   -0.651753   -1.177573
C       0.000508   -1.966836   -1.122123
F      -0.023115   -2.617142   -2.278273
C       0.051446   -2.685764    0.065569
N       0.075164   -2.034479    1.230733
C       0.047959   -0.726937    1.170617
F       0.071568   -0.064462    2.324015
H       0.854034    1.919908    0.475163
H      -0.069371    1.876080   -1.048842
H      -0.902766    1.886116    0.526658
H       0.072620   -3.770000    0.075214
