16

O      -0.084184    0.035717   -0.067912
C      -0.004154    1.233076   -0.022310
C       1.347655    1.988826   -0.026460
N       2.523343    1.137814    0.030189
C       2.720392    0.498706    1.340194
C       3.885922   -0.376965    1.321140
C       4.831345   -1.117382    1.300046
C       1.340317    2.841818   -1.216475
C       1.266388    3.503001   -2.217047
H      -0.901858    1.888370    0.001838
H       1.346680    2.636463    0.864714
H       2.449536    0.418775   -0.683136
H       2.877285    1.295985    2.079883
H       1.846183   -0.081067    1.676154
H       5.671615   -1.766434    1.284676
H       1.231855    4.102061   -3.093692
