20

C      -0.106790    1.488533   -0.107374
C       0.145554    0.013463    0.050488
C      -1.034248   -0.989609    0.063027
N      -0.369460   -1.772369    1.147512
C       0.698010   -0.749932    1.287071
C       1.925981   -1.041694    0.402331
C       2.355209   -2.465858    0.109544
O       3.192946   -2.498504   -1.035474
O       1.258511   -0.450751   -0.757914
H       0.803484    2.061648    0.090762
H      -0.425678    1.706971   -1.133086
H      -0.892900    1.829012    0.573747
H      -1.985089   -0.528839    0.359038
H      -1.179539   -1.550752   -0.865507
H      -0.938628   -1.867666    1.978931
H       0.856728   -0.328912    2.281073
H       2.798140   -0.428695    0.668059
H       2.942363   -2.861229    0.946301
H       1.465325   -3.095936   -0.011525
H       2.699601   -2.052752   -1.734478
