21

C      -0.050043    1.427496   -0.142471
O       0.013704    0.023214   -0.230732
C      -1.169121   -0.591851    0.241133
C      -1.063077   -2.040782    0.135246
C      -0.989010   -3.239897    0.050297
C      -0.911577   -4.707614   -0.024304
C      -2.325144   -5.296939   -0.192417
C       0.004621   -5.138521   -1.177596
O      -0.300701   -5.236808    1.159572
H       0.895848    1.818023   -0.523901
H      -0.875075    1.839889   -0.745404
H      -0.182912    1.767879    0.897119
H      -1.356499   -0.308038    1.292114
H      -2.042249   -0.238914   -0.336157
H      -2.793011   -4.943680   -1.115763
H      -2.259686   -6.388271   -0.217911
H      -2.965630   -5.004412    0.645469
H       1.002986   -4.718838   -1.038984
H       0.080174   -6.229609   -1.187981
H      -0.393660   -4.797425   -2.135939
H      -0.753906   -4.851941    1.917375
