24

C       0.213661    1.497503    0.108293
C       0.056907   -0.028546    0.136974
C       0.442004   -0.588771    1.513071
C      -1.371505   -0.432627   -0.279978
C      -1.546354   -1.920002   -0.503926
N      -1.989405   -2.756530    0.629443
C      -2.854581   -2.628832   -0.562482
C      -4.199112   -1.992395   -0.292595
O      -5.000300   -2.836182    0.518290
H       1.233985    1.794916    0.371858
H      -0.010605    1.906328   -0.882762
H      -0.465111    1.973632    0.826159
H       0.749314   -0.449640   -0.607694
H      -0.216003   -0.187374    2.292634
H       0.360546   -1.677873    1.548700
H       1.470621   -0.315034    1.771034
H      -2.079738   -0.089291    0.481984
H      -1.627898    0.090148   -1.211618
H      -0.773522   -2.351578   -1.142004
H      -1.507816   -3.651129    0.624640
H      -2.904557   -3.495116   -1.220707
H      -4.070253   -1.004472    0.170328
H      -4.747430   -1.851075   -1.230147
H      -4.466160   -3.025369    1.299303
