20

C       0.104985    1.535864    0.096714
C      -0.018212    0.011187    0.037673
C      -1.467387   -0.508983   -0.051429
O      -2.250923   -0.062014    1.045994
C      -2.207066    0.031364   -1.281625
O      -1.453024   -0.321446   -2.432130
C      -1.426124   -2.062515   -0.103821
C      -2.748625   -2.677904   -0.035155
N      -3.793129   -3.170198    0.010081
H       1.135055    1.827143    0.321476
H      -0.164584    1.994658   -0.858712
H      -0.545642    1.951302    0.871128
H       0.546294   -0.376326   -0.816118
H       0.435515   -0.428891    0.937491
H      -1.824696   -0.341551    1.863376
H      -3.214708   -0.403685   -1.302290
H      -2.312098    1.118884   -1.177651
H      -1.985334   -0.139070   -3.211071
H      -0.941432   -2.370775   -1.035336
H      -0.818292   -2.445268    0.724675
