22

C      -0.750180    1.613960   -0.798498
C      -0.101311    0.357776   -0.224531
C      -1.156420   -0.724237    0.097539
C      -2.145083   -0.296023    1.177840
N      -3.415792   -0.042440    0.742814
O      -1.832820   -0.185730    2.349575
C       1.069852   -0.253279   -1.060850
C       1.901603   -0.399243    0.241046
C       0.913790    0.566242    0.948074
H       0.008852    2.361716   -1.049532
H      -1.309604    1.390132   -1.716147
H      -1.444999    2.072747   -0.086371
H      -1.679309   -1.002174   -0.826233
H      -0.656114   -1.623113    0.471524
H      -3.662732   -0.052199   -0.230436
H      -4.084749    0.307798    1.409406
H       0.852081   -1.162047   -1.630584
H       1.499065    0.485754   -1.744234
H       1.861738   -1.411954    0.651374
H       2.949599   -0.095252    0.194655
H       1.288437    1.594086    0.967309
H       0.557739    0.301777    1.943567
