17

C       0.041650    1.491552    0.001465
N       0.002504    0.036021    0.011341
C      -0.073818   -0.666405   -1.174047
C      -0.055593   -2.012838   -1.230543
C       0.038924   -2.830799   -0.016148
O       0.059979   -4.059664   -0.031765
C       0.081967   -2.034065    1.199724
C       0.069566   -0.670680    1.196939
N       0.200078    0.104427    2.352901
H       0.180272   -0.465936    3.187105
H      -0.464645    0.863670    2.434848
H       0.862187    1.854825    0.624938
H       0.198539    1.831868   -1.022214
H      -0.897325    1.930579    0.363245
H      -0.143738   -0.044479   -2.058712
H      -0.112877   -2.517643   -2.186983
H       0.117565   -2.561897    2.146271
