17

C      -0.801649    1.118938    0.280048
C      -0.148326   -0.241209    0.202861
N       1.201286   -0.310455   -0.377707
C       1.013501   -0.683415    1.026763
C       1.684557    0.203060    2.074455
N       1.053317    0.192027    3.398666
C       3.095483   -0.195357    2.214414
N       4.190647   -0.549693    2.311662
H      -0.079126    1.902656    0.518555
H      -1.253059    1.374690   -0.684055
H      -1.597320    1.131698    1.033300
H      -0.835848   -1.043837   -0.063946
H       1.322060   -1.130696   -0.964065
H       1.048768   -1.742289    1.282974
H       1.681429    1.233894    1.705558
H       0.078809    0.460697    3.297265
H       1.059032   -0.751338    3.776979
