15

C       0.812237    1.345268    0.197407
C      -0.016398    0.098209    0.023320
N      -0.291099   -0.587589    1.153369
N      -0.493590   -0.389345   -1.082552
C      -0.287027    0.205762   -2.277331
N       0.360577    1.296391   -2.640976
C       0.165827    1.303220   -3.991584
N      -0.540365    0.315162   -4.470694
O      -0.849860   -0.428554   -3.326604
H       1.720965    1.274764   -0.403938
H       0.268215    2.209932   -0.188330
H       1.074218    1.510706    1.245246
H       0.036713   -0.284447    2.051461
H      -0.842319   -1.427636    1.083728
H       0.561970    2.068958   -4.643987
