14

O      -0.486089    0.712243   -0.772230
C       0.133245    0.997767    0.218247
C       1.329673    1.943875    0.193509
C       1.528180    2.634871   -1.163620
N       2.522667    3.696322   -1.114192
C       2.684484    4.288624   -0.019597
O       2.012144    4.071746    1.173975
C       1.246393    2.943338    1.335521
O       0.610450    2.805300    2.337874
H      -0.119680    0.587674    1.214173
H       2.216807    1.328767    0.419153
H       1.826234    1.901716   -1.915435
H       0.577207    3.055311   -1.513628
H       3.391909    5.102042    0.109958
