10

O       0.021887   -0.084824    0.003562
C      -0.008706    1.130348    0.006766
C       1.187526    1.946414    0.000641
C       2.183888    2.621498   -0.004473
C      -1.243536    1.878529    0.017023
C      -2.292500    2.488010    0.025684
C      -3.464370    3.170947    0.035381
C      -4.507598    3.779485    0.043975
H       3.068436    3.211335   -0.009033
H      -5.425706    4.314124    0.051563
