18

C      -0.019751   -1.249629   -0.004468
C      -0.035213   -0.047730    0.002438
C      -0.018956    1.409950    0.010654
C       1.406862    1.997177   -0.000868
C       1.407277    3.527400    0.007883
C       2.833091    4.114625   -0.003613
C       2.849278    5.572302    0.004633
C       2.834258    6.774208    0.011502
H      -0.019664   -2.311247   -0.010427
H      -0.575498    1.786220   -0.857958
H      -0.557183    1.776150    0.894967
H       1.954911    1.615940    0.869027
H       1.936593    1.625981   -0.886314
H       0.859249    3.908645   -0.862020
H       0.877537    3.898600    0.893322
H       3.389614    3.738356    0.865011
H       3.371338    3.748412   -0.887911
H       2.834480    7.835830    0.016715
