15

O      -0.021802    0.015324    0.203913
C      -0.025141    1.182832   -0.038289
N      -1.151679    2.030263   -0.093484
C      -0.718884    3.332755   -0.159119
N      -1.167471    4.448804    0.239524
C      -0.015227    5.382085    0.110402
C       1.271485    4.488206    0.055250
C       0.698968    3.261012   -0.649141
O       1.098220    1.924035   -0.296023
H      -2.013257    1.726908    0.333479
H      -0.117518    5.989815   -0.798071
H      -0.010699    6.068986    0.960106
H       2.109001    4.955441   -0.465309
H       1.585517    4.221888    1.069130
H       0.765843    3.349774   -1.741315
