15

N      -0.030297    1.467826    0.115367
C       0.009305    0.017880    0.004378
C      -1.398892   -0.570645   -0.072898
O      -2.135078   -0.117225   -1.211118
C      -1.498708   -1.418337   -1.268529
C      -0.174344   -1.366080   -1.954583
C       0.655905   -0.559453   -1.275990
C       1.965809   -0.174709   -1.662068
N       3.041192    0.172658   -1.919719
H       0.907652    1.856033    0.086085
H      -0.541326    1.844943   -0.678151
H       0.529958   -0.379441    0.884479
H      -1.976245   -0.728254    0.832502
H      -2.172215   -2.262561   -1.366224
H       0.051025   -1.869775   -2.885901
