17

O       0.025653    0.009339    0.043731
C      -0.008743    1.207278    0.003810
C      -1.252853    2.114313   -0.022917
C      -0.645958    3.528949   -0.061184
C      -0.416969    4.145212    1.328765
C       0.708657    3.440663    2.044446
C       1.467268    2.532049    1.428249
C       1.177092    2.197192   -0.016953
O       0.632891    3.325002   -0.692545
H      -1.817357    1.898930   -0.935064
H      -1.902497    1.907318    0.830974
H      -1.210007    4.209806   -0.701290
H      -0.186179    5.214110    1.230351
H      -1.341521    4.087805    1.919027
H       0.892622    3.705979    3.081988
H       2.251756    1.984926    1.939875
H       2.041372    1.825384   -0.567527
