15

O       0.129003    0.035498   -0.489324
C       0.218109    1.224140   -0.511629
O       0.787200    1.922385    0.500340
C       0.921238    3.333323    0.320831
C       1.186791    4.036107    1.616789
C       2.274251    4.807909    1.557210
C       2.970964    4.754410    0.222630
C       2.181338    3.673300   -0.520893
O       2.471847    3.125371   -1.547713
H      -0.158800    1.870961   -1.324424
H       0.028238    3.722018   -0.192679
H       0.538256    3.917036    2.475476
H       2.636292    5.422179    2.373278
H       2.912288    5.700148   -0.332978
H       4.034577    4.495516    0.277803
