15

C      -0.172768    1.445939   -0.084159
N       0.046337    0.007274    0.005995
C       1.389323   -0.482530   -0.186619
C       0.766838   -0.522755    1.195135
C       1.289724    0.385784    2.188895
C       1.703792    1.137563    3.030777
C       0.259301   -1.771432    1.713896
C      -0.142789   -2.816364    2.149057
H       0.663567    2.049816    0.294479
H      -0.340320    1.693950   -1.136514
H      -1.072555    1.706536    0.479775
H       1.488934   -1.413884   -0.736692
H       2.196003    0.236877   -0.320969
H       2.076203    1.793883    3.778092
H      -0.508266   -3.736175    2.533615
