21

C       0.147628    1.285381    0.264654
O      -0.124777    0.099329   -0.468215
C      -1.189176   -0.617497   -0.037417
N      -1.505126   -1.680941   -0.624693
C      -2.649047   -2.493140   -0.197055
C      -3.588715   -2.589423   -1.414322
C      -2.087741   -3.890185    0.130256
C      -3.431888   -1.956526    1.015535
H       1.021890    1.741775   -0.201383
H      -0.690762    1.991929    0.218304
H       0.376271    1.068648    1.315848
H      -1.696817   -0.173616    0.828696
H      -3.040813   -2.957756   -2.285371
H      -4.422970   -3.268419   -1.209244
H      -3.998890   -1.605791   -1.664441
H      -1.415731   -3.844049    0.993161
H      -2.897212   -4.590526    0.361245
H      -1.519365   -4.276743   -0.719513
H      -3.860666   -0.968071    0.817930
H      -4.259929   -2.631789    1.250863
H      -2.801284   -1.887045    1.908525
