21

C       0.058644    1.533436   -0.041211
C       0.021289    0.040243   -0.020275
C      -1.004038   -0.776500    0.208526
C      -0.575804   -2.210691    0.128253
C      -0.975580   -3.119883    1.332159
C      -2.150007   -3.671984    0.481328
C      -1.434095   -3.138141   -0.787723
O       0.813908   -2.150755   -0.172849
C       1.246156   -0.800410   -0.277963
H       0.765351    1.923562    0.702240
H       0.393599    1.908764   -1.016550
H      -0.924565    1.962421    0.167751
H      -2.023518   -0.480936    0.426485
H      -0.198264   -3.872385    1.488931
H      -1.200791   -2.632042    2.283991
H      -2.342818   -4.745183    0.532275
H      -3.087132   -3.144243    0.679476
H      -2.034233   -2.665230   -1.569313
H      -0.788357   -3.895882   -1.239284
H       1.672929   -0.616636   -1.277621
H       2.047206   -0.601739    0.452841
