15

C       0.028714    1.418548    0.009505
O       1.322371    1.937939   -0.009773
C       2.058385    1.647957    1.186894
C       1.852809    0.201784    1.511447
N       2.537324   -0.556278    2.361878
N       1.966598   -1.769401    2.247558
C       0.936247   -1.816278    1.355008
C       0.841964   -0.533722    0.860792
O      -0.004686   -0.008535   -0.064208
H      -0.505220    1.730510    0.923103
H      -0.482176    1.778700   -0.883697
H       3.103261    1.879794    0.965969
H       1.728890    2.308174    2.004164
H       2.326339   -2.527396    2.800691
H       0.385198   -2.717996    1.148390
