18

O      -0.083241    1.356219    0.335402
C       0.015831   -0.031445    0.058375
C      -1.397845   -0.599144    0.049793
C      -1.417638   -2.104495   -0.221071
O      -0.764035   -2.867754    0.799781
C      -1.766809   -3.353987    1.649359
O      -2.955753   -3.472477    0.869085
C      -2.823142   -2.677412   -0.232218
N      -3.702999   -2.453065   -1.104276
H       0.806596    1.717525    0.381638
H       0.491067   -0.212796   -0.920271
H       0.616434   -0.554294    0.817106
H      -1.877326   -0.382045    1.011502
H      -1.993568   -0.105329   -0.724608
H      -0.912973   -2.326164   -1.166525
H      -1.481801   -4.342144    2.021112
H      -1.966028   -2.671681    2.490534
H      -4.575082   -2.935057   -0.882687
