21

C       0.045724    1.622620    0.132017
C      -0.016056    0.096025    0.035839
C       0.669767   -0.479118   -1.226597
C       0.798995   -1.979874   -1.235053
C       0.208972   -2.574019   -2.277408
C       0.151916   -4.040469   -2.564754
C      -0.425586   -1.559993   -3.197024
C      -0.132595   -0.214513   -2.516939
O      -0.485613    0.862901   -2.924390
H       1.084268    1.968603    0.186538
H      -0.414485    2.088514   -0.741960
H      -0.470912    1.976337    1.029756
H       0.466140   -0.352407    0.913560
H      -1.059277   -0.243408    0.058180
H       1.649644    0.012823   -1.327447
H       1.320079   -2.513860   -0.446122
H       0.666869   -4.620561   -1.794055
H      -0.885766   -4.393491   -2.622746
H       0.612514   -4.273454   -3.533348
H      -0.001854   -1.564908   -4.210688
H      -1.508040   -1.695431   -3.324645
