19

C       0.091610    1.489606   -0.074833
N      -0.066115    0.056077    0.187875
C      -1.432026   -0.487519    0.051178
C      -2.219254   -0.133476    1.339979
O      -1.503232   -0.508810    2.484431
C      -2.198469   -0.023541   -1.218263
O      -1.472963   -0.276597   -2.401123
C      -1.295511   -1.953077   -0.049906
N      -1.208897   -3.092470   -0.223140
H       1.131201    1.757860    0.130751
H      -0.143346    1.784376   -1.106221
H      -0.535230    2.070819    0.607326
H       0.557268   -0.462269   -0.419421
H      -2.434582    0.947946    1.320379
H      -3.178430   -0.660115    1.347218
H      -0.574226   -0.328986    2.271469
H      -3.192838   -0.491627   -1.229763
H      -2.342232    1.059095   -1.169095
H      -1.454439   -1.230155   -2.543871
