14

N      -0.186314    1.294610   -0.245440
C      -0.058622   -0.057308   -0.059272
N      -1.049550   -0.934082   -0.207337
N      -0.401257   -2.085554    0.021069
C      -1.050667   -3.370281   -0.065812
C      -1.519638   -3.686934   -1.487427
O      -2.328702   -4.540500   -1.720642
N       0.884620   -1.938225    0.282852
N       1.127270   -0.651551    0.243637
H       0.534528    1.837854    0.205161
H      -1.117166    1.657435   -0.108225
H      -0.314909   -4.118904    0.241974
H      -1.905838   -3.413374    0.613384
H      -1.037774   -3.078632   -2.282066
