21

C      -0.232433    1.526593   -0.366660
C      -0.047961    0.033724   -0.085046
C      -1.373386   -0.724873   -0.029322
C      -1.228685   -2.216378    0.218928
O      -0.154124   -2.770982    0.248440
C      -2.527205   -2.992033    0.461423
C      -2.442592   -4.426312   -0.000576
C      -3.643758   -5.210927   -0.303534
O      -2.837455   -4.673710   -1.353395
H       0.731406    2.043440   -0.400087
H      -0.731727    1.693020   -1.327947
H      -0.840583    2.008318    0.407517
H       0.587325   -0.421954   -0.851359
H       0.484512   -0.108549    0.861997
H      -2.039867   -0.311505    0.742181
H      -1.932120   -0.608974   -0.970745
H      -2.706766   -2.961633    1.546449
H      -3.376791   -2.491679   -0.013986
H      -1.536118   -4.947304    0.301580
H      -3.623068   -6.295132   -0.202091
H      -4.627371   -4.755445   -0.190371
