15

N      -0.052780    1.478487    0.103428
C      -0.044594    0.068581   -0.049708
C       0.601917   -0.793622   -1.152675
N      -0.489966   -1.819256   -1.007622
C      -1.179929   -0.941139   -0.051927
C      -0.310955   -0.793855    1.180829
C       0.590064   -1.817694    1.636706
N       1.330337   -2.621837    2.015167
H       0.818101    1.815300    0.503918
H      -0.186782    1.948112   -0.786540
H       0.573497   -0.279385   -2.119298
H       1.607916   -1.185881   -0.973955
H      -1.019987   -1.905244   -1.868099
H      -2.257327   -0.838043   -0.003778
H      -0.780170   -0.216651    1.971480
