17

C       0.875560    0.644635    0.665390
C       0.250470   -0.527844    0.071460
C      -0.253046   -1.501203   -0.426265
C      -0.910027   -2.668991   -1.002015
C      -2.201165   -2.970318   -0.224642
O      -3.290430   -2.632562   -0.617733
C      -2.066883   -3.704601    1.082058
C      -1.460649   -5.052544    1.117618
O      -0.762203   -3.920685    1.612669
H       1.355772    0.398274    1.618642
H       1.643617    1.061740    0.004722
H       0.139934    1.433489    0.856929
H      -1.195480   -2.488823   -2.043044
H      -0.234799   -3.531845   -0.967748
H      -2.847019   -3.472083    1.804853
H      -1.812681   -5.761518    1.864746
H      -1.062283   -5.492890    0.204619
