19

O       0.127396    1.213210   -0.587080
C       0.040307    0.048190    0.221847
C      -1.345293   -0.595657    0.147346
C      -2.062009   -0.625657   -1.234916
O      -1.075254   -0.930744   -2.236900
C      -0.599216   -2.258892   -2.109487
O      -0.454014   -2.668661   -0.766410
C      -1.496259   -2.152437    0.068355
C      -2.788382   -1.909996   -0.756044
H       0.047480    0.903162   -1.497230
H       0.803126   -0.689903   -0.057108
H       0.256443    0.369461    1.245569
H      -2.026254   -0.186908    0.899896
H      -2.622354    0.237654   -1.593180
H      -1.281472   -2.942232   -2.636863
H       0.388310   -2.300676   -2.575715
H      -1.511790   -2.762486    0.972222
H      -3.624815   -1.655741   -0.102894
H      -3.113491   -2.654478   -1.484185
