19

C      -0.083112    1.492481    0.109185
C       0.013793   -0.003240    0.023221
C      -0.841292   -0.968540    0.808525
C      -1.783499   -2.078215    0.325625
O      -2.925931   -2.175144    1.173822
C       0.659806   -1.005552    0.994372
C       1.402220   -1.644195   -0.215546
O       0.441054   -2.100711   -1.183651
C       0.782140   -0.708147   -1.143049
H       0.882622    1.970939   -0.093847
H      -0.806454    1.887393   -0.614984
H      -0.406891    1.807669    1.105959
H      -1.311765   -0.436236    1.635801
H      -2.173480   -1.845346   -0.668073
H      -1.262218   -3.037339    0.253302
H      -2.639132   -2.566906    2.004459
H       1.146992   -0.800459    1.940032
H       2.374755   -2.120726   -0.212979
H       1.136455   -0.247081   -2.057814
