21

C       0.021836    1.630464   -0.051549
C       0.015687    0.097954   -0.007268
C       0.719515   -0.586149   -1.192892
C       2.200234   -0.403004   -1.425290
C       1.702941   -1.602317   -0.656320
C       1.638570   -1.558469    0.867319
O       1.655744   -2.790144    1.526310
C       2.100418   -0.320166    1.594269
C       0.628409   -0.518018    1.259483
H       1.041247    2.027299   -0.014782
H      -0.444744    1.998024   -0.971534
H      -0.529035    2.051095    0.796181
H      -1.030924   -0.231922   -0.036181
H       0.109603   -0.804881   -2.063409
H       2.555213   -0.579483   -2.435852
H       2.746495    0.380176   -0.912900
H       1.802593   -2.592188   -1.086621
H       2.573552   -3.074347    1.597542
H       2.354602   -0.459199    2.640258
H       2.691767    0.437003    1.093131
H      -0.029053   -0.696804    2.103502
