20

C      -0.096256    1.420343   -0.134053
C      -0.002835   -0.101705    0.049811
C       0.785216   -0.451134    1.339733
O       0.845741   -1.833725    1.629256
C       2.149655    0.121013    1.296071
N       3.226695    0.535773    1.232960
C      -1.378508   -0.740749    0.083861
C      -2.138438   -0.969693   -1.200074
C      -1.614089   -2.142124   -0.410942
H       0.891341    1.886403   -0.187187
H      -0.635798    1.654271   -1.055291
H      -0.644315    1.879506    0.696941
H       0.556737   -0.522901   -0.798288
H       0.264936   -0.003527    2.195182
H       1.300817   -2.275414    0.903263
H      -1.979561   -0.433593    0.937620
H      -3.206243   -0.782244   -1.207797
H      -1.641223   -0.725697   -2.133773
H      -0.769971   -2.686712   -0.821164
H      -2.317398   -2.766538    0.127939
