23

C      -0.066036    1.547341   -0.052784
C       0.064959    0.034072    0.006349
C       1.099013   -0.683482   -0.905676
C       1.400991   -1.657311    0.263316
C       0.755296   -0.628143    1.241644
O       1.728523    0.292801    1.734919
C      -0.146652   -1.138821    2.361731
C       0.591027   -1.922958    3.441063
O      -0.369228   -2.372424    4.384893
H       0.897092    2.026873    0.137247
H      -0.421355    1.862751   -1.040151
H      -0.779448    1.919133    0.690874
H      -0.917658   -0.434009   -0.123784
H       0.734330   -1.114283   -1.840858
H       1.953413   -0.037454   -1.122890
H       0.816760   -2.579954    0.197065
H       2.447150   -1.917454    0.451450
H       2.404588   -0.206934    2.202903
H      -0.653139   -0.287720    2.831846
H      -0.923181   -1.785823    1.937908
H       1.128216   -2.772854    2.987237
H       1.342077   -1.276202    3.923013
H       0.092977   -2.844791    5.083437
