23

C       0.013568   -2.829090    0.030984
C      -0.131642   -1.726767    1.087012
C      -1.206142   -0.726583    0.709149
C      -2.612737   -0.891503    1.170409
N      -1.791321    0.213571    1.666273
C      -1.357230    0.193739    3.060897
C      -2.004630    1.320311    3.851388
C      -2.188529    2.663793    3.258136
N      -3.355708    1.797414    3.526687
H       0.811935   -3.527816    0.297611
H      -0.915051   -3.399523   -0.073213
H       0.254745   -2.406178   -0.950267
H      -0.357574   -2.175605    2.059884
H       0.826634   -1.202619    1.200460
H      -1.052046   -0.278938   -0.273527
H      -3.450772   -0.620165    0.533198
H      -2.814748   -1.713576    1.857329
H      -1.580738   -0.765065    3.555833
H      -0.267772    0.323382    3.097457
H      -1.814031    1.254572    4.921482
H      -2.120035    3.550484    3.882142
H      -1.885630    2.792180    2.223428
H      -3.633801    1.379039    2.640826
