21

C      -0.356134    1.509394   -0.060880
C      -0.016502    0.009660   -0.001972
C       0.927869   -0.244979    1.191106
C      -1.322950   -0.787430    0.182450
C       0.687272   -0.480306   -1.291459
C       0.460671    0.141628   -2.633339
N       1.752696    0.298399   -1.959571
C       0.974578   -1.906659   -1.288826
N       1.172115   -3.045777   -1.277463
H       0.525314    2.141657   -0.213613
H      -1.088691    1.740080   -0.839438
H      -0.794920    1.811526    0.894572
H       0.450498    0.064494    2.125986
H       1.183983   -1.304699    1.277020
H       1.861076    0.318424    1.086043
H      -2.010627   -0.616842   -0.652420
H      -1.130264   -1.861499    0.248822
H      -1.826579   -0.477745    1.103566
H       0.480672   -0.485750   -3.518947
H      -0.213486    0.989942   -2.687845
H       1.816046    1.216922   -1.528080
