16

C      -0.277997    1.465193    0.014231
C       0.018504   -0.002816   -0.027037
N       0.187447   -0.532881   -1.188297
O       0.465087   -1.909822   -1.206617
C       0.551002   -2.645555   -0.056285
N       0.801632   -3.890374   -0.071494
C       0.335346   -1.910011    1.204401
C       0.419677   -2.675103    2.483937
N       0.081643   -0.648014    1.209906
H       0.487456    1.980976    0.602897
H      -0.309010    1.880444   -0.993131
H      -1.237192    1.635062    0.513714
H       0.920546   -4.226107   -1.029529
H       1.400788   -3.152453    2.571173
H       0.243244   -2.007319    3.327101
H      -0.310774   -3.490381    2.481543
