18

N       0.396553    1.424043   -0.961302
C       0.078399    0.138668   -0.353737
C       0.427851   -1.154850   -1.140781
C      -0.298303   -1.304447   -2.491857
N       0.365811   -0.681637   -3.631417
C      -0.025170    0.492843   -4.181189
O      -0.894709    1.217907   -3.733100
C       0.722125    0.056248    0.971777
N       1.249100   -0.043663    1.995139
H       1.374760    1.461929   -1.229898
H      -0.167507    1.563676   -1.796672
H      -1.005405    0.133704   -0.175049
H       1.512438   -1.206669   -1.292795
H       0.160459   -2.012268   -0.512144
H      -0.404818   -2.369954   -2.717654
H      -1.304293   -0.878278   -2.439703
H       1.094418   -1.197342   -4.099478
H       0.543875    0.737020   -5.098001
