21

C       0.221666    1.407019    0.096380
C       0.029292   -0.097839    0.044471
O       0.773633   -0.663702    1.129535
C       0.740034   -2.013212    1.267212
C       1.625916   -2.410143    2.428847
C       3.119479   -2.316494    2.073665
N       0.052000   -2.717009    0.470598
C      -0.002993   -4.157794    0.558058
H       1.278403    1.670553   -0.006977
H      -0.333216    1.882822   -0.717888
H      -0.141042    1.814597    1.044530
H      -1.024643   -0.379288    0.143334
H       0.384633   -0.524670   -0.899883
H       1.405477   -1.729699    3.257543
H       1.379869   -3.419448    2.764348
H       3.377030   -3.008926    1.266128
H       3.372470   -1.304957    1.746002
H       3.739241   -2.562578    2.940838
H       0.329672   -4.590280   -0.393406
H       0.597168   -4.613489    1.358015
H      -1.043935   -4.474614    0.696319
