17

O       0.927045   -0.130761   -0.220053
C       0.426537    0.957183   -0.326336
C       1.091547    2.246007    0.133758
C       1.098659    3.269719   -1.008273
O       0.078845    3.614514   -1.550232
C       2.477985    3.751261   -1.430761
C       3.269189    2.733812   -2.303744
C       3.133025    3.820431   -3.391725
O       2.457111    4.715593   -2.480821
H      -0.570050    1.107993   -0.790056
H       0.473710    2.672077    0.934578
H       2.087340    2.024300    0.523978
H       3.015665    4.113064   -0.542031
H       4.285247    2.536090   -1.962617
H       2.765934    1.787066   -2.506339
H       4.072536    4.247752   -3.758435
H       2.497959    3.555744   -4.244339
