19

C      -0.028252    1.652215   -0.050262
C       1.587749    1.649558   -0.057643
O       2.433457    1.562321    1.165428
C       1.676841    0.333458    1.446504
C       1.410630   -1.195240    1.805316
C      -0.082753   -0.609550    1.541987
C       0.426722    0.608556    2.310802
C      -0.090949    0.045887    0.080323
C       1.406600    0.163210   -0.076207
H      -0.611139    2.306163    0.600514
H      -0.288989    1.889260   -1.086888
H       2.068382    2.295794   -0.790989
H       1.832102   -1.946160    1.135270
H       1.506721   -1.500559    2.848424
H      -0.939201   -1.195070    1.877213
H       0.659577    0.394572    3.357059
H      -0.102043    1.553728    2.250632
H      -0.720847   -0.444760   -0.662224
H       2.076102   -0.537462   -0.572864
