21

C       0.005823    1.517769   -0.001788
C       0.032830    0.008744    0.000823
C      -0.819323   -0.760750    0.984304
C       0.687124   -0.798880    1.111414
C       1.397560   -1.995984    0.498197
C       0.783810   -2.105684   -0.895881
C       1.070449   -3.191032   -1.834696
O      -0.155810   -3.176080   -1.098616
C       0.326060   -0.711790   -1.313253
H       0.936329    1.932990   -0.407875
H      -0.820606    1.901966   -0.611778
H      -0.122169    1.913442    1.010918
H      -1.361033   -0.178342    1.722440
H      -1.338658   -1.654666    0.653509
H       1.146025   -0.298306    1.957443
H       2.474645   -1.798529    0.425426
H       1.262819   -2.931134    1.050518
H       0.975165   -3.020044   -2.906971
H       1.773704   -3.976132   -1.556861
H      -0.532472   -0.773508   -1.989579
H       1.134300   -0.190019   -1.843526
