18

C      -0.526737    1.521065   -0.316455
C      -0.122622    0.106445   -0.028082
C       0.495920   -0.763595   -0.897475
N       0.685699   -1.959222   -0.248013
C       0.212184   -1.871350    1.034494
C       0.242082   -3.048937    1.972973
C       1.342375   -3.973679    1.708287
C       2.236282   -4.733951    1.446571
C      -0.298105   -0.603409    1.199052
H      -0.049021    2.229041    0.371167
H      -0.247230    1.811446   -1.333690
H      -1.609599    1.664517   -0.219450
H       0.822212   -0.624606   -1.916165
H       1.176193   -2.760315   -0.608479
H       0.310651   -2.678643    3.002570
H      -0.702920   -3.610390    1.921254
H       3.032347   -5.407713    1.246432
H      -0.755573   -0.221976    2.100665
