16

O       0.019315    1.430286   -0.086308
C      -0.068051    0.043277   -0.059633
C       0.131416   -0.662963    1.319754
N      -0.839191    0.133885    2.117284
C      -2.076809    0.072942    1.259149
C      -1.511417   -0.651326    0.026912
O      -2.395951   -0.826611   -1.013741
C      -0.723548   -1.784948    0.702239
O      -0.691628   -2.976689    0.590561
H      -0.149008    1.724632    0.821924
H       0.543401   -0.378279   -0.860450
H       1.101087   -0.808706    1.787279
H      -0.999968   -0.286177    3.026021
H      -2.894374   -0.489752    1.719221
H      -2.433653    1.077687    1.012244
H      -2.127475   -1.606977   -1.512705
