14

C      -0.006643    1.485708   -0.011673
C       0.000989   -0.029731    0.004573
O       0.679992   -0.467528   -1.188066
C       0.791840   -1.785985   -1.358800
C       1.381249   -2.460396   -2.385804
O       1.254071   -3.769269   -2.134827
N       0.565815   -3.894230   -0.917341
N       0.308803   -2.729172   -0.487114
H       1.013427    1.879394   -0.021127
H      -0.530999    1.862250   -0.894220
H      -0.515195    1.862065    0.880509
H       0.525081   -0.424344    0.882316
H      -1.014532   -0.441413    0.012032
H       1.887905   -2.162474   -3.286241
