18

O       0.020164    1.396903   -0.546633
C       0.037010    0.053740   -0.180567
C      -1.370939   -0.461747    0.101469
N      -2.315527    0.383324    0.041378
C      -3.706548    0.025113    0.224369
C      -4.007683   -0.873006    1.442270
N      -3.613255   -2.263066    1.320428
C      -2.479655   -2.596975    0.871454
N      -1.426109   -1.819718    0.384883
H      -0.918846    1.650281   -0.465981
H       0.482745   -0.565349   -0.979162
H       0.652519   -0.107480    0.721374
H      -4.278707    0.953622    0.326376
H      -4.080519   -0.477015   -0.678023
H      -3.528551   -0.431902    2.326699
H      -5.087137   -0.850854    1.628595
H      -2.222714   -3.657677    0.844956
H      -0.568671   -2.328441    0.219731
