20

C      -0.249376    1.506151   -0.168535
C       0.006404    0.000362    0.009965
C       0.863899   -0.251709    1.255666
C      -1.322870   -0.766175    0.110617
N       0.730553   -0.488575   -1.185314
C       1.940175   -1.075798   -1.315494
N       2.195781   -1.352293   -2.583366
C       1.077029   -0.900725   -3.207744
N       0.162552   -0.370981   -2.411710
H       0.694741    2.055470   -0.232381
H      -0.816924    1.688684   -1.082784
H      -0.816605    1.892291    0.683427
H       0.324648    0.110969    2.134399
H       1.062426   -1.317566    1.402550
H       1.817898    0.281650    1.206128
H      -1.910809   -0.626818   -0.798331
H      -1.144216   -1.837148    0.245830
H      -1.900402   -0.401841    0.965256
H       2.593017   -1.281884   -0.483591
H       0.929264   -0.962161   -4.275812
