17

C      -0.018249    1.527550    0.018095
C       1.308152    0.812119   -0.063952
C       0.010506    0.020337   -0.055313
C       0.124886   -0.693463   -1.417993
C       1.619537   -1.171575   -1.354539
C       1.877358    0.375837   -1.429655
C       0.653250    0.400828   -2.385000
H      -0.261958    1.937618    0.993928
H      -0.392722    2.132349   -0.799042
H       1.977153    0.831319    0.788953
H      -0.304263   -0.560740    0.804133
H      -0.686251   -1.364017   -1.703170
H       1.944470   -1.694243   -0.450278
H       1.943396   -1.712097   -2.248810
H       2.841847    0.788714   -1.726650
H       0.902939   -0.019037   -3.361616
H       0.089329    1.323494   -2.526589
