21

C      -0.077722    1.504286    0.091860
C      -0.138195   -0.010856   -0.123653
C       0.729875   -0.490258   -1.293555
O       0.387993    0.165396   -2.495955
C       2.256441   -0.437397   -1.019434
C       2.247764   -1.953068   -0.683065
C       0.875275   -2.056010   -1.396299
C      -0.199861   -2.960367   -0.864413
O      -1.382584   -2.765749   -1.013788
H       0.933732    1.836761    0.347119
H      -0.379487    2.037903   -0.813033
H      -0.742135    1.805805    0.906820
H       0.172550   -0.532926    0.790767
H      -1.172051   -0.325867   -0.307993
H      -0.561928    0.062530   -2.627734
H       2.789897   -0.230715   -1.949841
H       2.602902    0.251495   -0.246489
H       3.064888   -2.557333   -1.080299
H       2.168650   -2.142340    0.391930
H       1.016084   -2.299142   -2.456643
H       0.162252   -3.855856   -0.305623
