15

N       0.142154    0.182600   -1.003541
C      -0.003607    0.029902    0.343801
O       0.459457    0.811358    1.150470
C      -0.830055   -1.186239    0.789095
C      -0.979800   -2.285730   -0.233236
C      -2.208662   -3.104417   -0.336291
N      -1.899685   -2.108188   -1.382507
H       0.673242    0.972511   -1.331288
H      -0.224784   -0.477215   -1.669110
H      -0.358244   -1.558184    1.703717
H      -1.818254   -0.809711    1.085590
H      -0.045230   -2.761492   -0.525539
H      -2.146730   -4.140001   -0.656979
H      -3.024192   -2.890377    0.349503
H      -2.473885   -1.282036   -1.222312
