17

O       0.309731    0.064415   -0.580816
C       0.140310    1.163697   -0.150727
C      -1.053073    1.940245    0.440779
N      -0.214869    3.178998    0.522375
C       0.470924    3.320981    1.850581
C       1.728120    2.634981    1.302397
C       3.144565    2.972873    1.556588
N       2.595687    1.657434    1.938357
C       0.998621    2.434272   -0.030942
H      -1.890301    2.047121   -0.257718
H      -1.442451    1.569713    1.396113
H       0.598080    4.368936    2.138858
H      -0.035104    2.792077    2.668237
H       3.867580    2.945778    0.745718
H       3.357220    3.703394    2.333970
H       2.414153    1.618437    2.938737
H       1.479753    2.799577   -0.942092
