20

C      -0.092229    1.530899    0.379884
C       0.226907    0.058292    0.102757
C       0.987932   -0.587655    1.258446
N      -1.058573   -0.642723   -0.077391
C      -1.727822   -1.047751   -1.269482
C      -0.841583   -1.900766   -2.270682
O       0.491104   -2.015556   -1.753782
C      -0.530657   -2.858539   -1.217730
C      -1.385958   -2.032751   -0.176358
H       0.830614    2.112031    0.480275
H      -0.675147    1.962893   -0.439872
H      -0.675397    1.636346    1.300374
H       0.838012   -0.006015   -0.800281
H       0.382692   -0.582872    2.171528
H       1.251932   -1.622259    1.022352
H       1.912836   -0.038806    1.458798
H      -2.688028   -0.625214   -1.547494
H      -0.988448   -2.029681   -3.336005
H      -0.379456   -3.931069   -1.243857
H      -2.031616   -2.496396    0.562270
