22

C      -0.116414    1.506038   -0.006018
N       0.100476    0.070804    0.098111
C       1.384192   -0.551801   -0.150745
C       2.577913    0.278041    0.366755
C       1.916304    0.271141    1.758494
C       2.628469    0.061095    3.061595
C       1.886705    1.352791    2.802013
C       0.752335   -0.569973    1.227866
C       0.030576   -1.646579    1.983693
H       0.698933    2.133171    0.378057
H      -0.278913    1.758298   -1.058983
H      -1.026897    1.763519    0.544721
H       1.441553   -1.336639   -0.898573
H       3.512329   -0.289310    0.345904
H       2.744312    1.248773   -0.112080
H       2.200385   -0.635869    3.775335
H       3.713730    0.083566    3.060388
H       2.471720    2.249331    2.621214
H       0.961654    1.528499    3.342241
H      -0.598609   -1.222731    2.776561
H      -0.620534   -2.205465    1.307080
H       0.733291   -2.343073    2.452702
