15

N       0.114062    1.361641    0.006508
C      -0.049528    0.031163    0.000516
C      -1.124422   -0.809588    0.002472
C      -0.632309   -2.240489   -0.007815
N       0.812112   -2.079875   -0.015536
C       1.218360   -0.782830   -0.010999
O       2.345777   -0.326481   -0.015598
C      -2.527549   -0.488075    0.012306
O      -3.422849   -1.314404    0.013319
H       1.066775    1.695594    0.002265
H      -0.646034    2.016238    0.013691
H      -0.972446   -2.796588    0.874807
H      -0.982899   -2.787450   -0.892055
H       1.468841   -2.842221   -0.023433
H      -2.765563    0.601488    0.019390
