18

C       0.235047    1.464648   -0.062057
N       0.340381    0.014461   -0.102697
C       0.530457   -0.624563    0.961467
O       0.680764   -0.080645    2.209811
C       0.941563   -1.107373    3.180068
C       1.448924   -2.306409    2.373258
C       0.654742   -2.148642    1.055709
C      -0.660123   -2.780084    1.121204
C      -1.738272   -3.304346    1.204954
H       0.808128    1.884326   -0.895144
H      -0.811269    1.754770   -0.217240
H       0.582013    1.914991    0.874779
H       1.668690   -0.716657    3.895331
H       0.010339   -1.341398    3.709242
H       2.518681   -2.202120    2.169537
H       1.274159   -3.260786    2.870509
H       1.200097   -2.518785    0.184845
H      -2.694861   -3.762421    1.257437
