20

C      -0.081225    1.609617    0.298096
O       0.367409    0.332895   -0.109175
C       0.763003   -0.481904    0.953757
C      -0.406693   -1.217824    1.790965
C      -0.014939   -2.478955    0.981988
C       0.617874   -3.885468    0.718724
N       1.147353   -3.034822   -0.485361
C      -0.289971   -2.498612   -0.543293
C       1.333332   -1.928300    0.628625
H       0.700194    2.148722    0.855244
H      -0.323521    2.169099   -0.607976
H      -0.978579    1.549126    0.930578
H       1.462480    0.066360    1.603466
H      -0.158106   -1.258374    2.854850
H      -1.422801   -0.832788    1.666230
H       1.403963   -4.220395    1.400439
H      -0.015531   -4.714278    0.387529
H      -1.012941   -3.233865   -0.909552
H      -0.377203   -1.550969   -1.070968
H       2.199697   -2.150025    1.256925
