15

O       0.001807   -0.013792    0.027010
C      -0.014430    1.176362    0.003233
C      -1.084143    2.281489    0.068766
O      -0.034299    3.175276    0.538976
C       1.026644    2.309752    0.041606
C       1.497865    2.724073   -1.335771
C       0.665769    3.056485   -2.333054
C      -0.804629    3.036830   -2.314120
C      -1.601589    2.682611   -1.295868
H      -1.883411    2.168081    0.806118
H       1.847378    2.218050    0.758100
H       2.570286    2.769829   -1.495954
H       1.109091    3.368736   -3.274600
H      -1.280232    3.336826   -3.243824
H      -2.678619    2.699652   -1.428360
