17

O      -0.108408    1.410585   -0.232503
C      -0.018294    0.025002    0.068769
C      -1.414113   -0.557026    0.010811
C      -2.113839   -0.671646   -1.372236
C      -2.667115   -2.040739   -0.932844
O      -2.663240   -3.016454   -1.948831
C      -1.573299   -2.094467    0.172271
H       0.780196    1.777953   -0.232413
H       0.627155   -0.499898   -0.655138
H       0.412714   -0.139581    1.070916
H      -2.049952   -0.019687    0.721766
H      -2.822367    0.103799   -1.667292
H      -1.380982   -0.812158   -2.173172
H      -3.666363   -1.937881   -0.484987
H      -3.043968   -3.825989   -1.593777
H      -0.694967   -2.627073   -0.207864
H      -1.839063   -2.490401    1.155813
