18

C       0.033353    1.500596   -0.225061
C      -0.016330    0.009101    0.133916
O       0.604334   -0.214354    1.370661
C      -1.447424   -0.538614    0.168013
O      -1.843259   -1.079223    1.182237
C      -2.309910   -0.403155   -1.065402
C      -3.593267   -1.220361   -0.998149
O      -4.298699   -0.977882   -2.205285
H       1.069766    1.841764   -0.168592
H      -0.336685    1.687007   -1.237304
H      -0.556770    2.086705    0.486055
H       0.507526   -0.554659   -0.659891
H      -0.051632   -0.696106    1.900751
H      -2.561479    0.657030   -1.201138
H      -1.728763   -0.680256   -1.953534
H      -3.348192   -2.285739   -0.876170
H      -4.174010   -0.920015   -0.115597
H      -5.122146   -1.473414   -2.175295
