17

C       0.077270    1.526016    0.019182
C      -0.052306    0.004695    0.009175
C      -1.456824   -0.522383    0.027113
N      -2.450124    0.316375    0.048765
N      -3.691326   -0.190578    0.064229
N      -4.048281   -1.471229    0.060106
C      -3.079345   -2.335538    0.038671
C      -1.668377   -1.978850    0.019634
N      -0.661304   -2.782418   -0.001742
H       1.132684    1.812046    0.004756
H      -0.411228    1.974265   -0.850404
H      -0.383344    1.960287    0.910805
H       0.447894   -0.431911   -0.865303
H       0.475075   -0.445650    0.860384
H      -4.440272    0.480900    0.080825
H      -3.374873   -3.381671    0.035323
H      -0.981401   -3.754049   -0.003977
