19

C       0.259654    1.517581    0.067189
O       1.130565    0.450755   -0.309296
C      -0.229043    0.133477    0.007834
C      -0.463887   -0.699890    1.234490
C      -1.945974   -0.976844    1.648143
C      -1.603721   -2.482422    1.857825
C      -0.284393   -2.225557    1.127402
C       0.359195   -2.993473    0.058267
O       0.920367   -2.914657    1.377590
H       0.467737    1.970107    1.036105
H       0.005052    2.217976   -0.727185
H      -0.825441   -0.152008   -0.861942
H       0.129196   -0.310912    2.068364
H      -2.316722   -0.429796    2.515902
H      -2.637458   -0.819700    0.815626
H      -1.432381   -2.732531    2.908756
H      -2.285301   -3.219594    1.427321
H      -0.038916   -3.968331   -0.221668
H       0.924978   -2.475887   -0.714751
