17

C       0.246743    1.557091   -0.066664
C       0.083169    0.055458    0.034004
C       1.282540   -0.861809   -0.002077
C       0.485445   -0.721580    1.270957
C       1.079263   -0.054499    2.472856
C       2.358070   -0.489535    3.054886
O       2.270265    0.717014    2.293404
H       1.154967    1.894701    0.437474
H       0.306539    1.868809   -1.115445
H      -0.603986    2.080840    0.384347
H      -0.805366   -0.326674   -0.463303
H       1.222096   -1.792531   -0.555192
H       2.258150   -0.387223   -0.009650
H      -0.164060   -1.552293    1.538177
H       0.361020    0.412551    3.149840
H       2.548272   -0.354407    4.118538
H       2.907153   -1.299394    2.577391
