17

O      -0.011909    1.290058    0.516033
C      -0.250186   -0.076064    0.673713
C      -1.263613   -0.569626   -0.345188
O      -1.754648    0.206979   -1.144671
C      -1.625916   -1.995730   -0.311564
C      -2.224487   -2.770315   -1.453833
C      -3.002703   -2.656389   -0.177226
C      -2.331304   -3.481649    0.916636
O      -1.036596   -2.868270    0.654405
H      -0.583769    1.562883   -0.219783
H       0.671798   -0.669310    0.558379
H      -0.631441   -0.313619    1.679995
H      -2.587570   -2.152885   -2.267813
H      -1.747743   -3.705867   -1.731846
H      -3.967265   -2.172432   -0.113027
H      -2.672904   -3.234422    1.926813
H      -2.306601   -4.568820    0.784428
