16

O      -0.006934    0.013481   -0.210048
C      -0.031147    1.187090    0.014825
C      -1.058417    2.322674    0.051250
C      -0.771994    2.881475    1.481486
C       0.762164    3.037514    1.300163
O       1.885365    2.268813    1.844788
C       2.413153    2.135338    0.480449
C       0.976352    2.343188   -0.011148
N      -0.048539    3.049444   -0.886196
H      -2.083072    2.239182   -0.304221
H      -1.252707    3.840081    1.683877
H      -1.080411    2.158452    2.241130
H       1.044844    4.096162    1.276441
H       3.119393    2.939938    0.246112
H       2.854838    1.151906    0.304328
H      -0.128193    2.597042   -1.799439
