20

C       0.355814    1.559447    0.004954
O      -0.128342    0.264621   -0.287173
C       0.666661   -0.445260   -1.211919
C       1.998728   -0.763224   -0.666676
C       3.086082   -1.028782   -0.228161
C      -0.028434   -1.731450   -1.654456
N      -0.794978   -2.499078   -0.676083
C      -1.489573   -1.948689   -1.854354
C      -2.587378   -0.937994   -1.622818
H       1.351546    1.525684    0.466263
H       0.409555    2.184588   -0.900215
H      -0.350072    2.008958    0.706465
H       0.814926    0.171544   -2.117936
H       4.045042   -1.263674    0.163493
H       0.621483   -2.285450   -2.331781
H      -0.616282   -3.493960   -0.775178
H      -1.712898   -2.658377   -2.652927
H      -2.343561   -0.288653   -0.784177
H      -2.737659   -0.321050   -2.516191
H      -3.531053   -1.453640   -1.412872
