17

C      -0.019236    1.494692    0.098664
C      -0.006981    0.001739    0.026780
C      -0.025756   -0.784523   -1.070077
C      -0.003745   -2.273617   -0.738700
C       0.031708   -2.237649    0.760870
C       0.066225   -2.966326    1.921707
N       0.081564   -2.042757    2.933017
N       0.059349   -0.754080    2.507590
C       0.029172   -0.889497    1.188124
H       0.869092    1.867884    0.621234
H      -0.049253    1.943703   -0.897432
H      -0.886160    1.851262    0.666762
H      -0.053621   -0.422852   -2.091319
H      -0.886722   -2.787605   -1.141267
H       0.868634   -2.770933   -1.183145
H       0.081332   -4.023264    2.137276
H       0.106741   -2.224823    3.921555
