15

O       1.215329    0.760168    0.168627
C       0.327544   -0.231090   -0.094261
C      -0.808574   -0.304591   -0.862893
C      -1.308650   -1.641238   -0.731291
C      -0.451284   -2.306380    0.108119
N      -0.476203   -3.628325    0.566576
C       0.426476   -4.205535    1.402717
O       1.401101   -3.648540    1.881195
N       0.548005   -1.442531    0.497015
H       0.933068    1.549495   -0.302842
H      -1.237483    0.492010   -1.449958
H      -2.189993   -2.050231   -1.200284
H      -1.241047   -4.196481    0.238109
H       0.177162   -5.261600    1.608836
H       1.296993   -1.716249    1.116619
