19

N      -2.167812    1.392613   -0.136905
C      -2.416224    0.048608    0.129819
O      -3.502304   -0.355801    0.491923
N      -1.288189   -0.739974   -0.018156
C      -1.198161   -2.119512    0.183757
C      -0.049733   -2.805769    0.239576
C      -0.285627   -4.275250    0.483299
C      -1.808658   -4.428985    0.232647
C      -2.408805   -3.007704    0.368158
H      -3.021432    1.926529   -0.202197
H      -1.494793    1.615703   -0.855223
H      -0.408722   -0.258118   -0.125262
H       0.939958   -2.366326    0.170181
H       0.306888   -4.920941   -0.175779
H      -0.011045   -4.556682    1.510874
H      -1.971519   -4.794442   -0.786224
H      -2.279062   -5.145697    0.910410
H      -2.861668   -2.829361    1.349430
H      -3.195222   -2.802502   -0.361346
