15

N       0.179794    1.394620    0.124543
C       0.008521   -0.000711   -0.001124
C      -1.111862   -0.797628   -0.066800
C      -0.673177   -2.162930   -0.064935
N      -1.481580   -3.311809   -0.210726
C       0.695421   -2.140758   -0.013066
O       1.597872   -3.168609    0.036325
N       1.113652   -0.814174    0.002565
H       0.481090    1.825146   -0.745772
H      -0.692253    1.832669    0.395136
H      -2.132079   -0.452846   -0.147744
H      -2.341596   -3.229157    0.319229
H      -0.989061   -4.134913    0.118899
H       1.789922   -3.468895   -0.860759
H       2.029792   -0.514839    0.289911
