20

C       0.011596    1.552238   -0.068094
C      -0.006895    0.049332    0.060593
C      -1.261180   -0.732163    0.483263
N      -0.383667   -1.810790    1.062959
C       0.094570   -2.660183   -0.070611
C       1.157252   -1.771850   -0.738923
C       1.965926   -1.333245    0.492511
C       0.734771   -0.760713    1.171638
O       0.519669   -0.550221   -1.146927
H       1.033616    1.920277   -0.200206
H      -0.573032    1.866095   -0.939097
H      -0.418285    2.021839    0.821873
H      -1.831189   -0.246124    1.282714
H      -1.939608   -1.055310   -0.311618
H       0.532898   -3.589611    0.310702
H      -0.735705   -2.917339   -0.732717
H       1.695011   -2.189172   -1.590677
H       2.428184   -2.158709    1.039206
H       2.714568   -0.573435    0.256430
H       0.817264   -0.325453    2.166251
