18

C       0.388905    1.184454    0.055199
N       0.015967   -0.211082    0.193028
C       0.318750   -0.941636    1.301140
O       0.882768   -0.499055    2.281173
C      -0.178030   -2.395570    1.230641
O       0.426016   -3.186780    2.240784
C       1.733740   -3.482617    2.029831
C       2.317246   -4.184941    3.227087
O       2.316506   -3.206392    1.013200
H       0.760373    1.518554    1.024343
H       1.180189    1.318826   -0.691104
H      -0.474144    1.793922   -0.231833
H      -0.355719   -0.689121   -0.611572
H      -1.251503   -2.423912    1.436545
H       0.015986   -2.820974    0.241042
H       2.438148   -3.457921    4.036218
H       1.643471   -4.967027    3.584500
H       3.288680   -4.603638    2.966936
