16

N      -0.154858    1.256680    0.027869
C      -0.133701    0.011325    0.211710
O      -1.074091   -0.768180   -0.385539
C      -0.932282   -2.134395   -0.223259
C      -0.120408   -3.107858   -1.075696
C      -0.945228   -4.191185   -0.329893
O      -0.470917   -4.112884    1.049035
C      -1.158308   -2.868993    1.120636
C      -2.067234   -3.123412   -0.037650
H       0.600414    1.697900    0.548708
H       0.571512   -0.561600    0.826080
H      -0.404409   -3.037728   -2.128316
H       0.966626   -3.155102   -0.961255
H      -1.062838   -5.206113   -0.699937
H      -1.308661   -2.382913    2.075612
H      -3.134581   -3.064861   -0.193480
