11

C      -0.033978   -1.188300   -0.003670
C      -0.034096    0.013389    0.003050
C       0.004187    1.423977    0.010449
N      -1.069323    2.179885    0.027935
O      -0.616168    3.463077    0.029511
N       0.742948    3.529944    0.013069
C       1.159830    2.284879    0.000934
C       2.522227    1.917730   -0.017984
C       3.673468    1.573517   -0.034113
H      -0.041638   -2.250917   -0.009528
H       4.693698    1.276558   -0.048102
