17

N       0.138054    1.395034   -0.038522
C       0.048010   -0.047800    0.009661
C       0.430057   -0.618545    1.414359
C      -0.909330   -1.295000    1.748270
C      -1.248824   -2.093564    0.470866
C      -1.411771   -0.635488   -0.015375
O      -1.881672   -0.273943    1.320417
C      -2.266922   -0.239142   -1.113393
N      -2.900889    0.080058   -2.025630
H      -0.141237    1.742846   -0.951677
H      -0.505711    1.791295    0.642174
H       0.650656   -0.470051   -0.799047
H       1.268852   -1.317622    1.384733
H       0.668921    0.189763    2.107934
H      -1.088925   -1.672859    2.752658
H      -0.479004   -2.713660    0.006641
H      -2.205293   -2.610965    0.538566
