18

C      -0.258703    1.328890    0.504554
N      -0.206560   -0.120799    0.423910
C      -1.134666   -0.756375   -0.132852
C      -1.211598   -2.268783   -0.272526
C      -2.565753   -2.528024   -0.905165
C      -3.772935   -2.035223   -0.133595
O      -3.603250   -1.739844    1.216445
C      -3.136876   -1.158701   -1.184427
O      -2.251801   -0.171939   -0.710959
H       0.493062    1.757711   -0.169300
H      -1.233576    1.761037    0.250787
H       0.014234    1.637970    1.519252
H      -0.401181   -2.626041   -0.914284
H      -1.092686   -2.731216    0.709384
H      -2.683792   -3.349835   -1.599995
H      -4.730139   -2.486572   -0.394222
H      -3.879468   -0.828922    1.365215
H      -3.650683   -0.862845   -2.091029
