20

C       0.118765    1.438767   -0.156671
N       0.073262   -0.012979   -0.256379
C      -0.984498   -0.612843    0.085210
C      -1.107836   -2.113947    0.005976
C      -1.875067   -2.667297    1.218506
C      -3.253849   -2.021823    1.243449
C      -3.609648   -0.945161    2.247017
C      -3.283719   -0.577417    0.828455
O      -2.058954    0.079563    0.593001
H       0.984525    1.805592   -0.714227
H      -0.785873    1.923176   -0.545056
H       0.231907    1.758861    0.887630
H      -1.649697   -2.386175   -0.909615
H      -0.098197   -2.517429   -0.080167
H      -1.959955   -3.755396    1.153041
H      -1.320939   -2.449114    2.137824
H      -4.069303   -2.637759    0.877337
H      -4.638381   -0.857949    2.578338
H      -2.864569   -0.693841    2.994676
H      -4.070171   -0.208914    0.177001
