21

C      -0.062497    1.634364   -0.206269
C      -0.051045    0.212320    0.365565
C      -1.322491   -0.542065    0.017223
O      -1.483651   -0.737205   -1.409558
C      -1.832156   -2.124844   -1.225090
C      -1.464028   -2.069682    0.271699
C      -0.198765   -2.847067    0.664792
C      -0.422418   -4.288530    0.651429
C      -0.638378   -5.470836    0.627737
H       0.869642    2.159507    0.021380
H      -0.184100    1.606005   -1.292596
H      -0.889255    2.220911    0.209267
H       0.817648   -0.330883   -0.022260
H       0.049030    0.244094    1.458736
H      -2.187313    0.009364    0.419974
H      -2.893352   -2.312153   -1.433184
H      -1.224973   -2.791005   -1.849226
H      -2.274804   -2.336221    0.952551
H       0.619068   -2.602423   -0.023991
H       0.135441   -2.536242    1.662796
H      -0.814381   -6.517759    0.612010
