23

C       0.631802    2.047752   -0.318011
O       0.397169    0.661882   -0.241888
C       1.000718    0.016624    0.876521
C       0.158898    0.199035    2.142477
C       1.159882   -1.459769    0.499328
C       2.239574   -1.710180   -0.535178
O       3.530813   -1.324270   -0.122578
C       2.140249   -2.898111   -1.461669
C       1.974064   -1.484805   -1.989287
H       1.708164    2.276708   -0.350149
H       0.169549    2.402751   -1.242974
H       0.187980    2.601625    0.522994
H       2.004453    0.439297    1.037733
H       0.643567   -0.275974    3.001718
H       0.022696    1.257356    2.383140
H      -0.830941   -0.250301    2.010809
H       1.394168   -2.034149    1.406737
H       0.196188   -1.830040    0.131485
H       3.813273   -1.937614    0.565503
H       3.066592   -3.408246   -1.701671
H       1.267054   -3.539291   -1.399642
H       0.988131   -1.142152   -2.276358
H       2.792155   -1.076010   -2.570856
