22

C      -0.252988    1.284602   -0.169583
N       0.071269   -0.111236    0.077270
C       1.453537   -0.559895   -0.086782
C       0.828654   -0.526028    1.272402
C       1.304421    0.505510    2.275236
C       0.285618   -1.833849    1.823952
O      -0.308430   -2.623074    0.835314
C       1.000090   -2.610652    2.885119
C      -0.313858   -1.921230    3.211601
H       0.563995    1.987237    0.050054
H      -0.517602    1.400059   -1.225615
H      -1.123226    1.569844    0.429908
H       1.582235   -1.503458   -0.608420
H       2.204401    0.198674   -0.304983
H       1.795999    1.347867    1.785236
H       0.474151    0.897637    2.871326
H       2.031594    0.065914    2.964274
H      -0.747194   -1.980959    0.251998
H       0.986365   -3.688518    2.770030
H       1.913895   -2.213868    3.313657
H      -0.293382   -1.061761    3.872097
H      -1.193119   -2.548001    3.304139
