21

C      -0.050883    1.541441    0.029287
C      -0.007432    0.028669    0.029497
C       0.937879   -0.793288   -0.922226
C       0.609131   -1.927324    0.104785
C       0.654684   -0.801266    1.190502
C      -0.907265   -2.052276   -0.098867
C      -1.315407   -0.781559   -0.148930
C      -2.672638   -0.202416   -0.328824
O      -3.616366   -1.252309   -0.454417
H       0.951340    1.960504    0.165234
H      -0.446470    1.932528   -0.915297
H      -0.681736    1.926067    0.839072
H       0.611185   -0.937692   -1.955298
H       1.979174   -0.453368   -0.885107
H       1.204680   -2.836336    0.181191
H       1.668669   -0.462150    1.431469
H       0.067583   -0.953014    2.099947
H      -1.486573   -2.959400   -0.179520
H      -2.914282    0.452524    0.528326
H      -2.682406    0.452942   -1.219051
H      -4.485338   -0.858660   -0.573389
