19

C       0.057184    1.464597   -0.250447
N      -0.031565    0.042509    0.059772
C       0.625534   -0.299628    1.317385
C      -1.296599   -0.521413   -0.133009
C      -1.626777   -1.863342   -0.241643
C      -0.813099   -3.110488   -0.203912
N      -2.968558   -1.823540   -0.451493
N      -3.444044   -0.569764   -0.502991
N      -2.427873    0.224207   -0.297105
H       1.113366    1.750742   -0.281197
H      -0.392267    1.657469   -1.225779
H      -0.456869    2.098915    0.488404
H       0.168186    0.202634    2.187253
H       0.587999   -1.377590    1.488349
H       1.678003   -0.002784    1.266665
H      -0.734684   -3.534643    0.804905
H      -1.235211   -3.883559   -0.854063
H       0.201041   -2.896252   -0.552938
H      -3.602360   -2.594649   -0.590601
