19

C      -0.241620    1.540751    0.162425
C       0.023361    0.055892    0.023417
C       0.545831   -0.647754   -1.203467
C       1.293809    0.189924   -2.246321
C       2.502415    0.830754   -1.518252
C       2.626516    0.067516   -0.204764
O       3.630410   -0.089411    0.456443
C       1.360506   -0.658079    0.094500
O       1.491467   -1.735513    0.953267
H       0.449451    2.162069   -0.410935
H      -1.253230    1.776544   -0.186523
H      -0.173334    1.849018    1.210795
H      -0.704389   -0.553112    0.557031
H       0.038676   -1.549180   -1.528994
H       1.649121   -0.465081   -3.047003
H       0.644614    0.938744   -2.711758
H       3.437864    0.737762   -2.074814
H       2.369594    1.898258   -1.312081
H       2.409858   -1.695729    1.262805
