20

C       0.338346    1.550774    0.280764
C       1.149987    0.489136   -0.412841
C      -0.265899    0.190334    0.023143
C      -0.608397   -0.710283    1.189658
C      -1.025658   -2.202929    0.973661
C       0.467993   -2.535484    0.695040
C       0.468553   -1.577817    1.925449
C      -0.714084   -2.423036    2.480833
H       0.602122    1.793436    1.305697
H      -0.018139    2.396207   -0.297400
H       1.350387    0.598901   -1.473362
H       1.961543    0.034159    0.144434
H      -1.000892    0.163905   -0.778725
H      -1.281300   -0.182225    1.877333
H      -1.896598   -2.562445    0.421780
H       0.777747   -3.566638    0.888210
H       0.896392   -2.159959   -0.233873
H       1.335175   -1.220144    2.485274
H      -1.376402   -1.932085    3.199735
H      -0.478045   -3.446337    2.784824
