21

C      -0.040260    1.603908    0.107391
C       1.457595    1.219534   -0.016186
C       1.169224    0.075287    1.018284
C      -0.019213    0.036638    0.016321
C      -1.189017   -0.862831   -0.283368
C      -1.659862   -0.482029   -1.710610
C      -0.495682   -0.358561   -2.714908
O       0.503200    0.589661   -2.330658
C       1.042159    0.189534   -1.094889
H      -0.357717    2.021698    1.066765
H      -0.471684    2.142265   -0.735291
H       2.318258    1.888821   -0.024781
H       1.848902   -0.782643    1.013160
H       0.948088    0.403734    2.036346
H      -0.864664   -1.911981   -0.264442
H      -2.009618   -0.764223    0.436092
H      -2.366838   -1.226563   -2.093579
H      -2.193343    0.474613   -1.673893
H      -0.026692   -1.347906   -2.856353
H      -0.868208   -0.025637   -3.687517
H       1.725394   -0.663163   -1.231429
