18

C       0.093323    1.552167    0.058357
C       0.046356    0.055946   -0.016750
C       0.617615   -0.805442   -1.113311
N       2.081786   -0.927990   -0.882458
C       1.142140   -1.816006   -0.140335
C       0.571553   -1.020067    0.991109
O       1.091820   -0.853817    2.262576
C      -0.905171   -0.794466    0.825346
O      -1.530031   -0.161445    1.896348
H       1.114261    1.924368   -0.074221
H      -0.531929    2.001986   -0.722088
H      -0.289983    1.897574    1.021875
H       0.191079   -1.008014   -2.089076
H       2.458998   -1.482150   -1.653469
H       1.189656   -2.893580   -0.245712
H       1.937976   -0.398089    2.184854
H      -1.543760   -1.543319    0.357541
H      -0.897101   -0.162590    2.627421
