18

C       0.069638    1.477352   -0.086405
C      -0.033053   -0.047054    0.092961
C      -1.439542   -0.557167    0.010022
N      -2.104604   -0.891203    1.111708
N      -3.338383   -1.283106    0.671010
C      -3.445059   -1.204541   -0.667791
O      -4.563771   -1.548793   -1.325880
C      -2.241142   -0.734684   -1.152508
N      -2.024576   -0.546427   -2.548790
H       1.109625    1.811241   -0.014377
H      -0.314665    1.791540   -1.062846
H      -0.511084    1.995959    0.681956
H       0.581745   -0.542299   -0.669843
H       0.375416   -0.332709    1.066926
H      -4.030126   -1.598445    1.328034
H      -4.356985   -1.401834   -2.262035
H      -1.247341   -1.101010   -2.894224
H      -1.824679    0.421583   -2.780687
