18

C       0.028123    1.490436    0.108611
C      -0.000663    0.038925    0.006493
C      -0.010144   -1.161622   -0.091616
C      -0.063758   -2.618447   -0.181621
O      -1.396386   -3.077933   -0.462110
C       0.814505   -3.182080   -1.324881
C       0.927013   -4.706767   -1.239148
O       0.296219   -2.764219   -2.572222
H       0.934200    1.898110   -0.352588
H      -0.831449    1.938949   -0.401287
H       0.006882    1.820774    1.152834
H       0.279555   -3.051689    0.770734
H      -2.009055   -2.451331   -0.065793
H       1.809613   -2.732820   -1.236742
H      -0.065137   -5.167136   -1.260525
H       1.501865   -5.078591   -2.090883
H       1.430558   -5.016637   -0.316747
H      -0.658345   -2.901963   -2.510676
