17

O      -0.152850    1.467924    0.011273
C       0.039634    0.061437    0.002956
C      -1.349386   -0.564922    0.011692
C      -1.322807   -2.059407    0.004356
N      -0.267780   -2.785483   -0.006248
C      -0.720396   -4.176776   -0.010171
C      -2.254673   -4.141035    0.001256
O      -3.061411   -5.036419    0.001173
N      -2.523121   -2.775954    0.008796
H       0.712184    1.887307    0.007524
H       0.589823   -0.272943   -0.887089
H       0.604767   -0.281402    0.880307
H      -1.899940   -0.213826    0.894244
H      -1.914811   -0.205414   -0.857973
H      -0.356680   -4.709632   -0.895803
H      -0.344055   -4.718650    0.864643
H      -3.452836   -2.388373    0.016300
