17

C      -0.031635    1.546067    0.049256
C       0.007575    0.017345   -0.014041
C       0.724759   -0.503048   -1.258340
N       0.708642   -1.963503   -1.300699
C       1.415835   -2.498306   -2.456445
C       1.426283   -3.963949   -2.441198
N       1.456469   -5.118285   -2.418925
H       0.977657    1.971967    0.056899
H      -0.562036    1.965517   -0.812571
H      -0.543603    1.889099    0.952835
H       0.511643   -0.373850    0.880372
H      -1.008491   -0.392148    0.000206
H       0.212202   -0.137030   -2.158654
H       1.751095   -0.088892   -1.296739
H       1.121558   -2.336989   -0.451428
H       0.902353   -2.167480   -3.368291
H       2.463087   -2.153282   -2.548754
