16

N      -0.092641    1.153759   -0.603101
C      -0.128462   -0.017223    0.266552
C      -1.477113   -0.656961    0.207572
N      -2.305212   -0.683760   -0.792712
C      -3.339550   -1.447597   -0.293081
C      -4.555932   -1.738794   -1.120693
O      -4.204181   -2.133492   -2.430167
N      -3.163523   -1.871343    0.926884
O      -1.910570   -1.331403    1.274963
H       0.865205    1.469844   -0.710746
H      -0.432361    0.898231   -1.525120
H       0.610909   -0.802654    0.023923
H       0.067212    0.280913    1.302320
H      -5.122667   -2.554485   -0.666223
H      -5.198967   -0.843824   -1.124611
H      -3.570925   -1.484035   -2.758199
