17

O      -0.526512    1.459360   -0.907714
C       0.229196    1.095162   -0.044125
C       1.489663    1.866863    0.360231
O       2.216711    1.436749    1.238386
N       1.659169    3.005031   -0.347575
C       2.758591    3.928767   -0.125748
C       2.275579    5.347729    0.058100
C       3.144678    6.483288   -0.328807
N       1.933563    6.178257   -1.111763
H       0.090205    0.166099    0.542565
H       0.944611    3.215510   -1.031252
H       3.284448    3.571121    0.764282
H       3.466950    3.887470   -0.966377
H       1.589562    5.481537    0.891905
H       3.107355    7.411048    0.233785
H       4.115841    6.256563   -0.762147
H       2.200541    5.697954   -1.969291
