20

C      -0.192353    1.450903   -0.351633
C      -0.102927    0.050652    0.239273
O       0.495778   -0.171051    1.276899
N      -0.736402   -0.922564   -0.480334
C      -0.810892   -2.308615   -0.043261
C      -2.232191   -2.738708    0.253198
C      -3.162101   -3.142058   -0.881677
C      -2.645649   -4.171292    0.093588
O      -1.657040   -5.071695   -0.316980
H       0.819679    1.846373   -0.468329
H      -0.705683    1.493937   -1.316057
H      -0.715042    2.098627    0.357715
H      -1.258280   -0.657999   -1.299379
H      -0.374120   -2.969837   -0.797917
H      -0.191683   -2.372106    0.854275
H      -2.692233   -2.203782    1.079188
H      -4.206268   -2.851418   -0.843404
H      -2.733722   -3.176381   -1.879216
H      -3.346903   -4.570527    0.826119
H      -2.067368   -5.717731   -0.901015
