19

C      -0.003736    1.485980   -0.042507
O       1.165685    0.665390   -0.069079
C      -0.112549    0.022294   -0.007884
C      -0.431873   -0.726944    1.240080
C      -1.635813   -1.650924    1.267889
C      -0.252793   -2.217107    1.287410
C       0.428115   -3.139225    0.278328
O       1.024756   -3.900793    1.350982
C       0.423658   -3.062323    2.361519
H      -0.155485    2.054052    0.874809
H      -0.220207    2.027367   -0.962666
H      -0.395586   -0.483221   -0.933853
H      -0.205126   -0.185541    2.155339
H      -2.227173   -1.691881    2.177008
H      -2.215603   -1.754868    0.354711
H      -0.239772   -3.754424   -0.339192
H       1.186674   -2.672485   -0.363363
H       1.178121   -2.547933    2.971461
H      -0.248035   -3.629215    3.020065
