21

C      -0.026019    1.386710   -0.371536
O      -0.070083    0.166798    0.337814
C      -1.289377   -0.508502    0.206504
C      -1.557364   -1.398593   -1.050454
C      -0.456196   -2.370240   -0.534350
C      -1.321628   -1.979543    0.717673
C      -2.575001   -2.172304   -0.163716
O      -1.232704   -2.437389    2.009211
C       0.019024   -2.184292    2.630965
H       0.942119    1.848761   -0.164448
H      -0.123186    1.233717   -1.456206
H      -0.823906    2.072232   -0.046871
H      -2.127870    0.131211    0.519899
H      -1.710905   -1.067523   -2.074343
H      -0.537504   -3.408469   -0.865065
H       0.568410   -2.002321   -0.564512
H      -3.480424   -1.640651    0.142091
H      -2.788306   -3.198443   -0.468041
H      -0.051041   -2.573531    3.648913
H       0.836870   -2.697687    2.106866
H       0.243893   -1.111937    2.661871
