21

C       0.502238    0.637671    0.663949
O       0.153960   -0.591656    0.057489
C       0.554760   -0.677802   -1.300537
C       2.044889   -1.091837   -1.520424
C       1.568168   -2.488694   -1.957942
C       1.181238   -3.449856   -0.765055
O       1.676153   -3.116147    0.508545
C      -0.326766   -3.132628   -1.012853
C       0.077235   -2.001418   -1.978051
H       1.588596    0.804785    0.663070
H       0.020134    1.482139    0.149888
H       0.149572    0.601378    1.697303
H       0.248274    0.236662   -1.825826
H       2.517733   -0.530533   -2.330740
H       2.689373   -1.056195   -0.637808
H       2.057472   -2.965715   -2.807842
H       1.465455   -4.490862   -0.938196
H       1.237757   -2.293965    0.769737
H      -0.840113   -3.944578   -1.535833
H      -0.908011   -2.858494   -0.129693
H      -0.504050   -1.861593   -2.890035
