17

C      -0.139358    1.564449   -0.075744
C       0.068797    0.055938   -0.007461
C       0.905554   -0.527699   -1.168663
N       1.401675   -1.772477   -0.609138
C       1.408196   -1.842100    0.752241
O       1.803164   -2.749363    1.440686
C       0.797024   -0.494575    1.251123
C       1.870984    0.375641    1.723946
N       2.718805    1.080676    2.071541
H       0.811814    2.101310   -0.018451
H      -0.631960    1.838838   -1.014189
H      -0.771514    1.912623    0.746411
H      -0.905252   -0.445561   -0.026986
H       0.294157   -0.705466   -2.058328
H       1.724641    0.150180   -1.447711
H       1.853447   -2.491600   -1.151845
H       0.117807   -0.695589    2.082798
