16

N      -0.123873    1.352364   -0.113551
C      -0.020322    0.097902    0.060753
C      -1.246010   -0.795564    0.028776
C      -1.128040   -1.911330    1.051975
C      -0.835366   -3.324260    0.645175
N       0.201516   -2.481464    1.222917
C       1.277436   -1.984294    0.480291
O       2.252638   -2.628398    0.177393
N       1.173501   -0.614287    0.215528
H       0.787869    1.814766   -0.098970
H      -2.128277   -0.178859    0.197054
H      -1.320554   -1.210969   -0.983835
H      -1.653224   -1.749604    1.990388
H      -1.163480   -4.151010    1.267885
H      -0.771610   -3.543287   -0.417895
H       2.034718   -0.184866   -0.092620
