11

N       0.061241   -3.722270   -0.018848
C       0.040000   -2.560080   -0.012018
C       0.014529   -1.197581   -0.004004
C      -0.013967    0.012918    0.003194
C      -0.023756    1.416317    0.011245
C      -1.097387    2.267580    0.030119
O      -0.688727    3.531889    0.031919
N       0.708683    3.568346    0.013803
C       1.089249    2.321433    0.001747
H      -2.162955    2.099919    0.043138
H       2.142055    2.080247   -0.013425
