14

C      -0.011942    1.468976    0.071145
N       0.090606    0.019564    0.004479
C       0.645619   -0.722937    0.974303
C       0.726963   -2.100114    1.149868
C       1.474071   -2.219118    2.355332
N       1.812564   -1.070660    2.869205
O       1.269197   -0.099608    1.971472
C       0.182254   -3.082748    0.305086
N      -0.285568   -3.860560   -0.417938
H       0.953691    1.896936    0.348739
H      -0.288418    1.842099   -0.915909
H      -0.761320    1.799964    0.800290
H      -0.469443   -0.478017   -0.668687
H       1.771593   -3.128681    2.858041
