22

C      -0.093780    1.630384   -0.104721
C      -0.063620    0.161429    0.331558
C      -1.348941   -0.564834   -0.010726
O      -1.543080   -0.678957   -1.467855
C      -1.639151   -2.049351   -1.392473
N      -1.814736   -2.908523   -2.289902
C      -1.467446   -2.118570    0.117071
C      -0.234573   -2.896934    0.576819
C      -2.726704   -2.591396    0.847820
H       0.847862    2.131194    0.137615
H      -0.253132    1.707908   -1.183962
H      -0.902158    2.176105    0.394180
H       0.781750   -0.348565   -0.142053
H       0.090123    0.091716    1.416276
H      -2.210234   -0.038195    0.417260
H      -1.895730   -2.475186   -3.211502
H       0.670611   -2.596297    0.044038
H      -0.064253   -2.762198    1.650350
H      -0.386906   -3.963532    0.388108
H      -2.899336   -3.654225    0.655432
H      -2.621138   -2.450978    1.929319
H      -3.613260   -2.042555    0.516033
