19

C      -0.072228    1.523438    0.057147
C      -0.021449    0.030925   -0.012381
C       0.027887   -0.749987   -1.098600
C       0.058689   -2.232588   -0.775052
C       1.257178   -2.987897   -1.379357
O       1.272726   -2.948745   -2.798211
C       0.075508   -2.231574    0.753885
O       1.231225   -1.609998    1.328691
C       0.012791   -0.835796    1.212040
H       0.805472    1.925783    0.578182
H      -0.112539    1.970474   -0.939644
H      -0.951969    1.865476    0.616831
H       0.065712   -0.380865   -2.118690
H      -0.856719   -2.721063   -1.136775
H       2.184140   -2.588543   -0.948529
H       1.192696   -4.047513   -1.109680
H       1.573741   -2.075044   -3.064534
H      -0.328983   -3.067983    1.317888
H      -0.420870   -0.522075    2.157738
