20

C       0.084083    1.646141    0.070309
C       0.049521    0.106750    0.080428
C       0.776839   -0.445703    1.321041
C      -1.414626   -0.396739    0.011290
C      -2.299657    0.066465    1.150107
O      -3.331024    0.668557    0.998169
N       0.699190   -0.417844   -1.139399
C       1.990123   -0.207532   -1.505156
O       2.818273    0.423023   -0.879156
H       1.117101    1.995137    0.041028
H      -0.445207    2.038932   -0.803068
H      -0.397168    2.047713    0.967676
H       0.348784   -0.038736    2.241458
H       0.707469   -1.537486    1.359120
H       1.830243   -0.165837    1.280104
H      -1.885288   -0.068573   -0.921400
H      -1.408365   -1.496798    0.031167
H      -1.946259   -0.207495    2.168306
H       0.128736   -0.944157   -1.782522
H       2.218430   -0.696152   -2.474650
