18

C      -0.080115    1.532139   -0.080770
C      -0.070372    0.035278    0.090468
O       1.216808   -0.621015   -0.005714
C       0.541262   -0.632854    1.237887
C       1.215841   -0.174998    2.499241
C       0.439301   -0.750156    3.643386
C      -0.734329   -1.551611    3.100204
C       0.255234   -1.932176    1.980948
N       1.455052   -1.601583    2.943462
H       0.718680    1.997963    0.501753
H       0.061324    1.800551   -1.132757
H      -1.039392    1.947701    0.246442
H      -0.862775   -0.499412   -0.437704
H       1.974627    0.588193    2.621587
H       0.601456   -0.411804    4.661145
H      -0.954443   -2.401614    3.750812
H      -1.663122   -1.042240    2.822917
H       0.225036   -2.884162    1.455814
