18

O       0.050134    0.046521   -0.532715
C      -0.016669    1.154752   -0.062392
C      -1.329531    1.741986    0.478113
C      -1.314314    3.242683    0.858180
C      -0.057543    3.600042    1.630524
C       1.073311    3.067919    1.196368
C       2.506775    2.777277    1.582645
N       2.434538    1.559702    0.708929
C       1.192989    2.077586    0.070234
H      -2.121884    1.513523   -0.241346
H      -1.554411    1.151703    1.375852
H      -1.393451    3.858956   -0.047929
H      -2.206897    3.467769    1.449567
H      -0.121905    4.225034    2.515806
H       3.217339    3.540659    1.232720
H       2.714456    2.563415    2.636743
H       3.217456    1.446773    0.074920
H       1.352366    2.552395   -0.913983
