23

C      -0.925174    1.194438    0.308745
C      -0.003237    0.007961    0.007419
C       0.850038    0.279114   -1.257793
C       2.189200   -0.492897   -1.300458
O       3.136431    0.168065   -2.132451
C       2.714131   -0.732434    0.124308
C       1.705729   -1.633077    0.885071
C       0.919317   -0.332196    1.196533
C       2.282130    0.415943    1.084955
H      -0.343625    2.087489    0.567439
H      -1.547034    1.444543   -0.557566
H      -1.592424    0.975861    1.149160
H      -0.635581   -0.872597   -0.171865
H       0.273030    0.099790   -2.170031
H       1.102483    1.347834   -1.275075
H       2.052361   -1.469112   -1.780917
H       3.293585    1.042100   -1.758040
H       3.765074   -1.028585    0.091283
H       1.190584   -2.416128    0.317399
H       2.148965   -2.073117    1.782401
H       0.378023   -0.277023    2.145147
H       2.837656    0.375921    2.025333
H       2.290584    1.448162    0.719816
