20

C      -0.101181    1.648839   -0.226939
C      -0.014297    0.115784   -0.102086
C      -1.388279   -0.579388    0.074085
C      -2.096776   -0.187517    1.352381
O      -1.230921   -0.396659    2.441426
C      -3.076475    0.957590    1.383040
C      -3.564912   -0.478685    1.498094
C       0.673911   -0.451869   -1.265773
N       1.204429   -0.895921   -2.191994
H       0.891957    2.081415   -0.370665
H      -0.723998    1.938128   -1.078757
H      -0.534349    2.070101    0.682096
H       0.586829   -0.126471    0.781133
H      -2.030139   -0.353445   -0.783319
H      -1.228503   -1.663131    0.080266
H      -1.668698   -0.118650    3.251482
H      -3.107162    1.572520    2.277901
H      -3.282586    1.503392    0.468716
H      -4.101612   -0.914031    0.661645
H      -3.912326   -0.815928    2.469724
