18

O      -0.007792    0.002846   -0.173516
C       0.015741    1.206025   -0.034341
N      -1.077347    2.013415    0.187997
C      -0.820158    3.426258    0.097631
C      -1.703803    4.330526   -0.720112
C      -1.698099    4.425653    0.796253
C       0.685656    3.532651    0.055244
C       1.436433    2.924993    1.205038
C       1.216112    2.117804   -0.059784
H      -2.001604    1.617491    0.248821
H      -1.235830    5.127591   -1.289133
H      -2.574532    3.892930   -1.197210
H      -2.568559    4.054872    1.328011
H      -1.226432    5.285014    1.260971
H       1.123210    4.353801   -0.498994
H       2.446099    3.279285    1.380006
H       0.890858    2.644396    2.099955
H       2.057479    1.827888   -0.674372
