23

C      -0.142264    1.202408    0.674669
C       1.116326    1.703338   -0.097048
C       1.439542    0.241294   -0.530134
C       0.077451   -0.216995    0.102792
C      -0.456142   -0.540166   -1.336089
C      -1.421439    0.394256   -2.089609
C      -0.740717    0.587422   -3.462137
C       0.767404    0.699783   -3.136141
C       0.959883   -0.246047   -1.933653
H       0.000623    1.227837    1.758574
H      -1.093759    1.694731    0.454498
H       0.907147    2.396536   -0.915956
H       1.881531    2.162402    0.533484
H       2.404035   -0.140743   -0.191255
H       0.006746   -1.048876    0.805583
H      -0.779479   -1.579961   -1.433722
H      -2.434809   -0.009472   -2.172725
H      -1.508050    1.365091   -1.589632
H      -0.916368   -0.297415   -4.086676
H      -1.126740    1.450806   -4.013263
H       1.396553    0.432980   -3.990160
H       1.017788    1.733490   -2.874273
H       1.497662   -1.152909   -2.223052
