14

C       0.070280    1.418272    0.019973
C      -0.037509   -0.062080   -0.016355
N      -1.113068   -0.776421   -0.191721
C      -0.682356   -2.086150   -0.144514
N      -1.551865   -3.117225   -0.348794
C       0.677063   -2.102754    0.068997
O       1.087023   -0.775829    0.147531
C       1.603009   -3.139511    0.211141
N       2.328947   -4.039254    0.327005
H       0.735521    1.776874   -0.771788
H      -0.919644    1.852585   -0.117082
H       0.484984    1.753381    0.975771
H      -2.521576   -2.893054   -0.188315
H      -1.267318   -4.029800   -0.029102
