14

C       0.120744    1.472525    0.018160
C      -0.043688   -0.009502   -0.000015
C      -1.179418   -0.708931   -0.146249
C      -1.205643   -2.180682   -0.146623
O      -2.230115   -2.831886   -0.278402
C       0.121491   -2.778024    0.026923
C       1.186441   -1.978534    0.163769
F       2.418976   -2.401241    0.324826
O       1.168636   -0.642435    0.158884
H       0.791962    1.795731   -0.784643
H      -0.845308    1.962075   -0.109354
H       0.563135    1.799821    0.965102
H      -2.119809   -0.186709   -0.269634
H       0.238836   -3.852524    0.044249
