18

O      -0.087542    1.397546    0.032932
C       0.016874    0.025217    0.030369
C      -1.182490   -0.904220    0.091563
C      -0.142942   -1.006736   -1.036081
N       0.868995   -1.903271   -0.421403
C       0.020269   -2.963336    0.182335
C      -0.850798   -2.053659    1.083827
C       0.280831   -1.437607    1.939843
C       1.044313   -0.875200    0.733491
H       0.642478    1.757350   -0.483702
H      -2.176281   -0.519325   -0.093019
H      -0.335324   -0.968697   -2.101710
H      -0.535571   -3.480901   -0.603923
H       0.618236   -3.689013    0.741964
H      -1.694048   -2.498659    1.610245
H      -0.054242   -0.629196    2.596803
H       0.828389   -2.180104    2.528399
H       2.071785   -0.536982    0.860349
