19

C      -0.042875    1.546604   -0.004890
C       0.015855    0.007337    0.014380
C       0.677940   -0.502767    1.301201
O      -1.310328   -0.533598    0.034081
C       0.742315   -0.477040   -1.171646
C       1.309940   -0.868656   -2.160601
C       1.976730   -1.316878   -3.352854
C       3.232618   -2.092696   -3.296578
O       2.003664   -2.731431   -3.610803
H       0.960234    1.981569    0.025512
H      -0.538706    1.900576   -0.913977
H      -0.611068    1.895067    0.862050
H       0.097130   -0.162611    2.163173
H       0.700742   -1.594411    1.302980
H       1.699666   -0.125342    1.387027
H      -1.707476   -0.366870   -0.827682
H       1.798759   -0.716057   -4.244263
H       3.945366   -2.004858   -4.115792
H       3.655331   -2.337321   -2.324101
