14

N       0.064536    0.957029   -1.139003
C       0.091868    0.142783   -0.165894
O       1.286583   -0.396790    0.224756
C       1.487449   -1.281703    1.239348
C       0.639516   -1.846289    2.098328
C      -0.808470   -1.707422    2.246813
N      -1.373374   -2.381898    3.177686
N      -1.615869   -0.880923    1.432283
C      -1.225611   -0.148721    0.470093
H       1.004657    1.099736   -1.514512
H       2.545892   -1.510019    1.283140
H       1.083512   -2.526739    2.815791
H      -2.376267   -2.180227    3.154376
H      -1.990184    0.426360   -0.053223
