17

C       0.106767    1.477483    0.540711
C      -0.085995    0.078582   -0.042284
C       0.839220   -0.945822    0.615173
O       1.671996   -0.680188    1.443252
C      -1.496570   -0.439495    0.032929
C      -2.541191   -0.004707    0.810426
N      -3.590704   -0.848288    0.517489
C      -3.144317   -1.745633   -0.403472
N      -1.888431   -1.530124   -0.717701
H       1.150331    1.786356    0.452857
H      -0.523223    2.204196    0.021016
H      -0.142956    1.495483    1.605800
H       0.194659    0.070190   -1.106793
H       0.674927   -1.986928    0.264120
H      -2.640329    0.802730    1.515381
H      -4.517781   -0.798302    0.905176
H      -3.776144   -2.522559   -0.807273
