21

O      -0.190525    0.042549   -0.299518
C      -0.000560    1.161028    0.110595
C       1.311750    1.884783    0.063708
C       2.560367    1.149211   -0.495481
C       2.992121    2.528658   -1.073691
C       1.484406    2.894957   -1.125526
C       3.682213    3.385175    0.000901
C       3.112015    3.073851    1.405653
C       1.628892    2.631790    1.377404
H      -0.839717    1.756457    0.545434
H       3.222859    0.642149    0.210157
H       2.264609    0.446177   -1.276449
H       3.542185    2.540856   -2.017386
H       1.001793    2.529180   -2.035580
H       1.198207    3.936362   -0.948202
H       4.762587    3.201693    0.001982
H       3.548433    4.444402   -0.251673
H       3.699273    2.260577    1.843222
H       3.241760    3.928099    2.076934
H       0.956358    3.494175    1.465091
H       1.427477    1.991165    2.244362
