22

C       1.705033   -3.300159   -2.313622
N       0.840528   -2.794742   -1.263480
C      -0.501339   -2.647234   -1.415223
O      -1.080515   -2.958679   -2.453054
C      -1.238363   -2.051113   -0.222464
C      -2.650137   -2.662364   -0.015543
C      -2.560886   -4.175717    0.253800
C      -3.346789   -1.954036    1.148728
O      -3.446643   -2.411383   -1.163121
H       2.448752   -2.552512   -2.610139
H       2.227446   -4.207845   -1.992991
H       1.073403   -3.535391   -3.170375
H       1.252856   -2.525863   -0.385857
H      -0.641047   -2.147222    0.691335
H      -1.363664   -0.979920   -0.422025
H      -1.972418   -4.393761    1.152431
H      -3.566947   -4.580159    0.394071
H      -2.105015   -4.694750   -0.594161
H      -3.414710   -0.879372    0.956368
H      -4.363462   -2.342291    1.256906
H      -2.812485   -2.111295    2.091129
H      -2.900714   -2.670783   -1.924305
