17

C      -0.153436    1.533017   -0.002373
C       0.077001    0.024408    0.026585
C       0.851627   -0.521934   -1.197182
C       1.322278   -1.916786   -0.763452
C       1.508592   -1.813343    0.757026
O       2.033879   -2.636360    1.460573
C       0.906646   -0.481782    1.219258
H       0.800606    2.072929   -0.021902
H      -0.722170    1.829118   -0.890473
H      -0.709835    1.871631    0.877732
H      -0.899831   -0.479009    0.055409
H       0.243026   -0.531029   -2.105468
H       1.717651    0.123145   -1.394432
H       0.547247   -2.673524   -0.944161
H       2.234418   -2.276394   -1.245683
H       1.744853    0.201934    1.420080
H       0.358626   -0.598501    2.157367
