17

C      -0.010202   -1.142892    0.060659
C      -0.013908    0.058379    0.026413
C      -0.000619    1.494080   -0.040247
C       0.485992    2.159746   -1.311407
C       1.337699    2.219460   -0.061278
C       1.417890    3.504524    0.756711
O       0.362504    3.602851    1.708351
C      -0.875476    3.387575    1.109206
O      -1.063006    2.048669    0.696066
H      -0.012594   -2.204016    0.099924
H       0.798934    1.515871   -2.124275
H      -0.019636    3.069708   -1.620010
H       2.219160    1.589698   -0.036574
H       2.342966    3.527602    1.336281
H       1.405575    4.389564    0.100932
H      -1.645654    3.573655    1.859685
H      -1.013537    4.074748    0.253599
