20

C      -0.015782    1.560087   -0.091351
C      -0.006684    0.030304   -0.131124
C      -1.404707   -0.573826    0.115058
C      -1.426476   -2.070447    0.107494
C      -1.673622   -2.909965    1.119408
C      -1.586402   -4.325244    0.658953
O      -1.719605   -5.348122    1.297572
N      -1.313955   -4.235347   -0.692647
C      -1.153156   -2.876810   -1.148165
H       0.985124    1.966438   -0.264902
H      -0.681480    1.973117   -0.857304
H      -0.361496    1.928566    0.880634
H       0.374405   -0.308534   -1.102178
H       0.686054   -0.359669    0.624058
H      -1.787711   -0.215584    1.077178
H      -2.090971   -0.193807   -0.655445
H      -1.910588   -2.655647    2.143230
H      -1.115849   -5.050719   -1.246392
H      -1.862972   -2.613654   -1.946915
H      -0.143529   -2.683504   -1.539518
