18

C       0.181603    1.472431    0.111113
N      -0.256881    0.148771   -0.308027
C       0.512375   -0.474985   -1.356145
C       1.987385   -0.436192   -1.164723
N       3.130031   -0.380937   -0.994607
C       0.084225   -1.967274   -1.450519
O      -0.378452   -2.539168   -0.484184
N       0.289280   -2.533457   -2.662974
C       0.043349   -3.941715   -2.922295
H       1.224897    1.515475    0.461739
H       0.078342    2.177368   -0.721965
H      -0.470642    1.815769    0.917851
H      -0.330184   -0.507592    0.462583
H       0.307084    0.026314   -2.312557
H       0.714153   -1.977960   -3.387832
H      -0.648670   -4.068330   -3.760663
H       0.975155   -4.471196   -3.147407
H      -0.400918   -4.368278   -2.023021
