25

C      -0.170055    1.512481    2.394031
C      -0.192851   -0.014150    2.276576
C       0.950078   -0.559676    1.408730
C       1.015192   -2.081115    1.327902
C      -0.181877   -2.794515    0.715280
C      -0.428971   -2.452631   -0.751293
O      -1.506113   -3.262720   -1.202106
C       2.374048   -2.701564    1.089363
C       1.732041   -2.791218    2.453300
H      -0.259838    1.987333    1.410361
H      -0.993501    1.878376    3.015326
H       0.766714    1.861747    2.842893
H      -0.130171   -0.463512    3.275838
H      -1.158153   -0.329443    1.862139
H       0.872345   -0.132432    0.399293
H       1.903548   -0.192472    1.810844
H      -0.033011   -3.878550    0.780942
H      -1.095490   -2.577364    1.281392
H      -0.669289   -1.383553   -0.861305
H       0.486459   -2.642424   -1.334567
H      -1.684181   -3.041291   -2.120593
H       2.425840   -3.606409    0.492370
H       3.228096   -2.043268    0.967699
H       2.150566   -2.187158    3.251955
H       1.354749   -3.754735    2.779374
