15

C      -0.083676    1.520030   -0.119550
C      -0.004641    0.022788    0.029394
N       1.300906   -0.600938   -0.163307
C       0.686606   -0.645176    1.190011
C       1.323846    0.103047    2.229901
C       1.827017    0.720113    3.140216
C       2.457086    1.477903    4.187053
O       2.298773    1.280591    5.370905
H       0.809941    1.996140    0.288952
H      -0.163699    1.790430   -1.177411
H      -0.961498    1.915348    0.401393
H      -0.874767   -0.523351   -0.333858
H       1.209437   -1.516434   -0.596575
H       0.258746   -1.591360    1.513634
H       3.122848    2.285477    3.819500
