21

C      -0.092656    1.464291    0.347559
C      -0.052386   -0.028755   -0.001161
C      -1.470155   -0.606287   -0.099702
C       0.731189   -0.302072   -1.309261
C       2.200872   -0.021458   -1.235400
C       3.224666   -0.915855   -1.041466
N       4.381502   -0.165949   -1.033369
C       4.017685    1.132098   -1.223373
N       2.717450    1.256368   -1.349730
H       0.910720    1.892644    0.396904
H      -0.649263    2.023360   -0.414586
H      -0.591543    1.626010    1.309426
H       0.474631   -0.555444    0.807097
H      -2.029258   -0.133598   -0.916514
H      -1.454504   -1.685304   -0.289107
H      -2.031187   -0.435678    0.825234
H       0.590084   -1.353659   -1.586692
H       0.293083    0.299312   -2.115886
H       3.239834   -1.986028   -0.916913
H       5.317940   -0.516522   -0.924252
H       4.740125    1.933721   -1.265959
