14

C      -0.031292    1.414590   -0.041806
N      -0.006265   -0.042034    0.011266
N      -0.053574   -0.688230   -1.180418
N      -0.037068   -1.943914   -1.241175
C       0.031858   -2.734146   -0.061877
N       0.051114   -4.002256   -0.072962
N       0.078961   -2.040223    1.143905
C       0.063568   -0.676252    1.259419
O       0.104138   -0.062992    2.299179
H       0.872324    1.825570    0.413813
H      -0.086151    1.693294   -1.093100
H      -0.899250    1.798235    0.499009
H       0.009789   -4.326182   -1.038485
H       0.128488   -2.576400    1.999701
