20

C      -0.155156    1.497139   -0.122588
C       0.043624   -0.014371   -0.126541
C       1.332296   -0.505407   -0.849262
C       2.044168   -0.607834    0.525836
C       0.643983   -0.569399    1.202447
N       0.373657    0.038422    2.524636
C       0.038552   -1.266966    3.156891
C       0.117473   -1.896809    1.755511
O      -0.130378   -2.966901    1.283628
H       0.769931    2.026082    0.133380
H      -0.473308    1.844888   -1.111077
H      -0.913552    1.787791    0.609677
H      -0.880067   -0.513949   -0.434358
H       1.196671   -1.486131   -1.309719
H       1.771605    0.175319   -1.582370
H       2.670808   -1.481712    0.720360
H       2.614170    0.295534    0.765537
H       1.173752    0.505453    2.935397
H       0.789097   -1.676383    3.846207
H      -0.940804   -1.297876    3.646677
