21

C       0.008565    1.461516    0.034487
C       0.040647   -0.047912   -0.012685
C      -0.119706   -0.742200   -1.359456
C       0.050690   -2.231688   -1.034814
C      -1.214504   -2.769321   -0.303704
C      -0.570739   -2.308667    1.019541
C      -0.444559   -0.782735    1.233873
C       1.033354   -0.799754    0.828563
C       0.835492   -2.255786    0.348144
H       0.755806    1.891206   -0.643130
H      -0.972279    1.848630   -0.264865
H       0.218750    1.835350    1.041957
H      -1.085241   -0.539829   -1.838936
H       0.664514   -0.384668   -2.040266
H       0.435825   -2.822938   -1.867017
H      -2.179746   -2.342458   -0.595586
H      -1.279704   -3.860987   -0.347753
H      -0.745440   -2.866930    1.941075
H      -0.921227   -0.224910    2.032646
H       1.900579   -0.362728    1.308476
H       1.595886   -3.015684    0.513749
