22

C       0.247517    1.493825    0.253877
C      -0.129183    0.038379   -0.054527
C       0.491239   -0.458276   -1.328880
C       0.067326   -0.061131   -2.763036
C       0.445692   -1.490333   -3.213862
C      -0.330004   -2.360021   -4.153442
C       1.086278   -1.944257   -4.495204
C       0.855981   -1.841546   -1.796801
N       1.881232   -0.915111   -1.309524
H       1.332595    1.596947    0.352120
H      -0.084120    2.169207   -0.542492
H      -0.211913    1.830682    1.188054
H       0.199968   -0.609805    0.764869
H      -1.220450   -0.057773   -0.122212
H      -1.005337    0.135859   -2.853808
H       0.620153    0.772837   -3.210581
H      -0.500487   -3.393555   -3.868159
H      -1.145363   -1.914373   -4.714614
H       1.221735   -1.213113   -5.286016
H       1.866992   -2.696924   -4.446148
H       0.754900   -2.805009   -1.307460
H       2.439261   -0.533340   -2.072020
