18

O      -0.216042   -0.015382    0.243014
C      -0.057026    1.131978   -0.089357
C       1.166748    1.968968    0.111374
C       1.548420    3.005111    1.131286
C       1.160615    2.939301    2.611309
C       2.540792    2.425620    3.173661
C       2.133580    1.172548    2.333489
C       0.685059    1.480491    2.804039
N       2.339221    1.748634    0.959779
H      -0.821614    1.662843   -0.703710
H       1.484713    2.276274   -0.892132
H       1.994775    3.926641    0.764333
H       0.633124    3.794809    3.031173
H       3.448196    2.948251    2.862934
H       2.530271    2.258604    4.252242
H       2.599220    0.195609    2.443678
H       0.571726    1.241327    3.862966
H      -0.171448    1.100726    2.259167
