15

N      -0.190417    1.412447    0.116769
C       0.090859    0.052498    0.036483
O       1.226638   -0.385651    0.016362
N      -1.030449   -0.743234    0.024854
C      -1.010664   -2.136967    0.006835
C       0.045643   -3.010640   -0.055153
N      -0.552230   -4.259607   -0.051194
C      -1.894407   -4.079197    0.013498
N      -2.209865   -2.801086    0.049251
H       0.618420    1.978568   -0.090422
H      -1.040281    1.745339   -0.313855
H      -1.944083   -0.342778    0.167554
H       1.106271   -2.855830   -0.094422
H      -0.068051   -5.140289   -0.085775
H      -2.594053   -4.900535    0.032061
