21

O      -0.035322    1.423666   -0.158392
C       0.041372    0.019443    0.040195
C      -1.369568   -0.546743   -0.046330
C      -1.414505   -2.065316    0.151287
C      -2.822265   -2.641791    0.053837
C      -3.552226   -2.647962   -1.346632
C      -3.649909   -4.174009   -1.234350
O      -2.311886   -4.674342   -1.114159
C      -2.958826   -4.176423    0.063809
H       0.855703    1.782243   -0.114629
H       0.679263   -0.457229   -0.722243
H       0.478721   -0.220249    1.023753
H      -1.990710   -0.046577    0.707398
H      -1.789561   -0.277878   -1.023140
H      -0.785234   -2.562728   -0.596301
H      -0.992340   -2.319761    1.133805
H      -3.476285   -2.195214    0.810964
H      -4.519379   -2.140979   -1.321288
H      -2.974440   -2.289779   -2.202722
H      -4.393634   -4.848953   -1.641776
H      -3.029553   -4.852535    0.908926
