11

O      -0.105050    0.024102   -0.064833
C      -0.018885    1.205945    0.008463
C       1.374220    1.979405    0.015992
C       1.377356    2.816618   -1.185320
C       1.302507    3.473931   -2.185716
C       1.392845    2.805718    1.237698
N       1.338338    3.441136    2.199964
C       2.489804    1.020169    0.019052
N       3.360857    0.264457    0.014147
H      -0.871513    1.907593    0.054569
H       1.264162    4.065012   -3.069085
