15

N       0.013961   -1.152047    0.009421
C       0.014960    0.003714    0.010619
C      -0.019864    1.447647    0.052595
C      -0.910410    2.161199    1.062040
C      -0.700469    3.457649    0.826670
C       0.303021    3.470338   -0.309358
C       1.312904    2.286641   -0.073493
N       1.384820    1.940104   -1.536776
C      -0.057782    2.288788   -1.284240
H      -1.547740    1.670960    1.782691
H      -1.133881    4.316501    1.318863
H       0.675528    4.404325   -0.729414
H       2.177691    2.240738    0.592368
H       1.835325    2.705973   -2.045434
H      -0.825378    2.245441   -2.060288
