20

C       0.362346   -0.125734   -1.291249
C      -0.186238   -0.011419    0.133890
C       0.753475   -0.576009    1.221085
C       0.184256   -0.329870    2.641226
C       0.019958    1.087795    2.948969
N      -0.095913    2.214400    3.180054
C       0.916497   -2.094022    1.043552
C       2.267047   -2.599262    0.584974
O      -0.011501   -2.835729    1.273417
H       0.488933   -1.169242   -1.598357
H      -0.323084    0.341425   -2.003996
H       1.331709    0.375862   -1.388135
H      -0.381821    1.040818    0.366095
H      -1.143928   -0.539796    0.207843
H       1.731652   -0.088881    1.139706
H      -0.780144   -0.840337    2.727782
H       0.841759   -0.771039    3.398912
H       3.028495   -2.348478    1.333694
H       2.237504   -3.679640    0.439241
H       2.567342   -2.100238   -0.342882
