18

N       0.131774    1.378165   -0.157298
C      -0.019471    0.022868   -0.000337
C      -1.194027   -0.654422    0.136545
C      -1.204721   -2.168389    0.136720
C       0.108879   -2.724888   -0.395804
O       1.212187   -2.084997    0.239981
C       1.293780   -0.730951   -0.105740
C      -2.471868    0.012131    0.305967
O      -3.542274   -0.560817    0.395339
H       1.008309    1.780832    0.136415
H      -0.663812    1.977112   -0.008374
H      -1.383210   -2.544858    1.151922
H      -2.045947   -2.523455   -0.468514
H       0.213517   -3.791382   -0.182110
H       0.175342   -2.585000   -1.487301
H       1.677962   -0.600197   -1.134426
H       2.029730   -0.277434    0.571567
H      -2.444009    1.125795    0.373423
