18

C      -0.050682    1.426162    0.039863
N       0.065008   -0.011622    0.007385
C       0.057269   -0.801865   -1.128526
C       0.043155   -2.123189   -0.738392
N      -0.019771   -3.292611   -1.528360
C       0.026839   -2.151169    0.687512
N       0.075005   -3.326031    1.476278
C       0.041890   -0.842911    1.108750
O      -0.001997   -0.341900    2.382912
H       0.732546    1.894873   -0.566152
H      -1.026060    1.764603   -0.331382
H       0.055651    1.758843    1.073278
H       0.046671   -0.357459   -2.110794
H       0.152541   -3.097830   -2.507219
H       0.662091   -3.977362   -1.216239
H      -0.642370   -3.981091    1.177633
H      -0.103501   -3.101309    2.449464
H       0.894433   -0.284172    2.735098
