23

C      -0.526277    1.458347    0.240345
C       0.083209    0.098570   -0.001651
C      -0.644601   -1.143479    0.461295
C       0.662642   -0.753167    1.114180
C       1.926286   -1.431664    0.607123
C       1.820188   -1.328292   -0.917359
C       2.934543   -1.776018   -1.819703
C       1.654343   -2.574374   -1.756623
C       0.990822   -0.078229   -1.216948
H       0.243964    2.238009    0.284257
H      -1.225842    1.731280   -0.559208
H      -1.081031    1.483271    1.183971
H      -1.548268   -0.990770    1.042642
H      -0.672796   -2.018695   -0.179467
H       0.636722   -0.406104    2.142129
H       2.805817   -0.882764    0.969818
H       2.031714   -2.469548    0.944344
H       3.131720   -1.196781   -2.716329
H       3.823642   -2.199503   -1.362995
H       1.677858   -3.537354   -1.255986
H       0.984862   -2.533023   -2.610285
H       0.438702   -0.162017   -2.160726
H       1.642228    0.803175   -1.303193
