15

O      -0.295618   -0.175789   -0.026076
C      -0.240831    1.031484   -0.071188
N       0.917195    1.765364   -0.058430
C       0.906709    3.223620   -0.062125
C       1.365258    3.803290    1.201034
C       1.761562    4.263556    2.237265
C       2.187128    1.070408    0.063351
C       3.055610    1.298530   -1.099441
N       3.736418    1.505756   -2.009320
H      -1.134436    1.680158   -0.132489
H       1.531319    3.590935   -0.886901
H      -0.117817    3.546553   -0.276564
H       2.102584    4.680175    3.153371
H       2.716442    1.393216    0.967866
H       1.955455    0.005297    0.153172
