15

C       0.303944    1.458500    0.213886
O       1.189831    0.377415   -0.106615
C      -0.192410    0.085307    0.086329
C      -0.529527   -0.783838    1.284512
C       0.127580   -2.193942    1.192079
O       0.981393   -2.260048    2.360018
C       0.796488   -1.089544    3.004913
N      -0.005344   -0.223590    2.543874
H       0.429604    1.875427    1.208750
H       0.129405    2.168672   -0.592872
H      -0.721600   -0.191677   -0.828167
H      -1.621791   -0.854583    1.351180
H      -0.589563   -3.016237    1.249343
H       0.756435   -2.314367    0.306874
H       1.372001   -0.987365    3.918386
