15

O      -0.458018    0.218435    0.225768
C      -0.142545    1.316252   -0.093247
O      -0.863938    2.211263   -0.860949
C       0.208379    3.202442   -0.811739
C       0.011405    4.200877    0.343503
C       0.877165    3.276021    1.278933
C       0.297089    2.798565    2.514984
C      -0.205334    2.403107    3.532685
C       1.044712    2.259109    0.084939
H       0.482197    3.540856   -1.808976
H       0.464914    5.179476    0.176516
H      -1.029796    4.325006    0.641601
H       1.844111    3.746252    1.478608
H      -0.646509    2.043206    4.429136
H       2.038451    1.869691   -0.122679
