18

C      -0.015228    1.543323   -0.031952
C       0.006601    0.034555    0.037069
C      -1.232781   -0.742597   -0.268999
C      -1.353029   -1.839894    0.486637
C      -0.218922   -1.967824    1.482780
C       0.684672   -0.778323    1.159169
C       1.287578   -0.742416   -0.221806
O       1.362951   -1.867098   -1.040914
H       0.954378    1.964429    0.251621
H      -0.240624    1.891981   -1.046874
H      -0.770926    1.964612    0.641257
H      -1.927924   -0.436153   -1.044052
H      -2.148235   -2.573190    0.407304
H      -0.586620   -1.938505    2.515978
H       0.314052   -2.921500    1.367508
H       1.209492   -0.280087    1.967296
H       2.184357   -0.140782   -0.340096
H       0.461753   -2.187801   -1.178116
