20

C       0.222032    0.595857   -1.434947
C      -0.077114    0.241424    0.020943
N      -1.360062   -0.451944    0.129109
C      -1.367456   -1.933227   -0.193258
C      -0.897086   -2.247042    1.253676
C      -1.716169   -0.949183    1.518606
C      -3.135000   -1.433961    1.196660
O      -4.154949   -1.279220    1.806637
C      -2.883934   -2.190977   -0.129761
H       1.148914    1.173318   -1.505401
H       0.344943   -0.302389   -2.049143
H      -0.594177    1.186295   -1.859835
H       0.775699   -0.317696    0.444266
H      -0.166042    1.162875    0.608749
H      -0.825458   -2.269016   -1.076589
H      -1.221100   -3.182189    1.721496
H       0.172146   -2.106808    1.408251
H      -1.579827   -0.288918    2.372988
H      -3.429745   -1.729823   -0.955613
H      -3.164067   -3.245414   -0.053443
