16

O       0.188012    0.132106   -0.560292
C       0.098756    1.241636   -0.098429
N       1.106988    1.895877    0.594541
C       2.524369    1.807409    0.226068
C       1.791498    3.091092    0.197067
C       1.539790    4.163830   -0.876925
C       0.655032    4.931923    0.140882
C       1.943979    4.467605    0.864813
O       2.719338    4.876696   -0.333699
H      -0.834171    1.837123   -0.124480
H       3.208689    1.587760    1.040508
H       2.748963    1.314512   -0.716454
H       1.451179    4.072738   -1.958896
H       0.597849    6.006579   -0.033776
H      -0.296931    4.489689    0.444951
H       2.337191    4.736102    1.843862
