17

O       0.038413    1.498651   -0.062346
C       0.085414    0.080679   -0.078921
C      -1.311082   -0.524444    0.002101
C      -1.518094   -2.086192    0.090438
C      -0.756611   -2.420033    1.384564
O      -1.131142   -1.290153    2.222966
C      -2.039559   -0.557027    1.384922
C      -2.871062   -1.683633    0.730198
O      -4.014319   -2.001623    0.623268
H      -0.195481    1.775155    0.829357
H       0.547323   -0.192941   -1.033455
H       0.722862   -0.304932    0.725455
H      -1.949314   -0.087879   -0.771564
H      -1.434342   -2.758973   -0.759258
H      -1.094834   -3.356314    1.842738
H       0.331734   -2.452756    1.274430
H      -2.441704    0.305989    1.909331
