18

C      -0.342038    1.403400   -0.200889
C       0.220979    0.011014    0.116861
C       0.882560   -0.626362   -1.085433
C       0.931659   -2.083016   -1.361450
C      -0.022228   -3.020850   -0.637729
O      -1.329234   -2.549513   -0.981638
C      -1.256459   -1.504394   -1.863447
O      -2.223777   -0.938661   -2.270978
N       0.098415   -1.219971   -2.218170
H       0.442487    2.069603   -0.575213
H      -1.124686    1.340726   -0.961559
H      -0.771258    1.860412    0.695088
H       0.979971    0.084924    0.906227
H      -0.574354   -0.628512    0.512426
H       1.717236   -0.046563   -1.475689
H       1.810392   -2.519240   -1.826114
H       0.089310   -4.048685   -0.996453
H       0.077772   -3.015379    0.452288
