17

C       0.008440    1.447410    0.030491
N       0.012897   -0.002705    0.015144
C       0.001860   -0.772068   -1.110470
C       0.012101   -2.100597   -0.724443
C       0.030442   -2.118673    0.704848
C       0.030724   -0.815653    1.137359
C       0.046336   -0.257234    2.521224
C       0.005318   -3.216984   -1.594078
N      -0.000104   -4.136334   -2.299974
H       0.905616    1.837780    0.520965
H      -0.012879    1.812401   -0.997071
H      -0.871696    1.831474    0.555439
H      -0.012419   -0.331730   -2.094013
H       0.041803   -2.997368    1.329962
H       0.929379    0.365770    2.709847
H      -0.836701    0.358392    2.732747
H       0.059091   -1.075343    3.244131
