19

O       0.021857    1.421071   -0.017949
C       0.001214    0.016678    0.073999
C      -1.418292   -0.538909    0.091143
O      -2.069746   -0.139686    1.265337
C      -3.341038   -0.764163    1.395909
C      -4.181002   -0.572288    0.150302
C      -4.335512    0.803072   -0.460273
C      -3.443886   -0.218384   -1.115897
O      -2.054933   -0.013685   -1.062355
H      -0.614500    1.648068   -0.706814
H       0.536374   -0.460718   -0.762675
H       0.499522   -0.264542    1.006095
H      -1.406724   -1.643659    0.034703
H      -3.206300   -1.841785    1.586692
H      -3.810834   -0.318986    2.277961
H      -5.017368   -1.258332    0.057711
H      -5.277144    1.057822   -0.933576
H      -3.824814    1.621911    0.034639
H      -3.750259   -0.662974   -2.058234
