20

C      -0.169394    1.594882    0.124220
C       0.089478    0.108096    0.032780
C       0.603057   -0.683985   -1.108063
C       1.711510   -0.026596   -1.929740
C       1.383149    1.075295   -2.946338
C       2.624013    1.547743   -3.670489
O       3.008932    2.687469   -3.711488
C       2.415143    0.267858   -0.576308
N       1.404213   -0.546449    0.192599
H      -1.165797    1.822319   -0.269088
H      -0.146624    1.910731    1.172966
H       0.548349    2.207654   -0.420585
H      -0.641320   -0.459218    0.609443
H       0.139494   -1.627551   -1.384922
H       2.269843   -0.813743   -2.448257
H       0.702342    0.654383   -3.701286
H       0.893752    1.940263   -2.495672
H       3.192587    0.733259   -4.180524
H       3.402138   -0.187532   -0.480795
H       2.485573    1.314561   -0.266628
