21

C      -0.344889    1.516545   -0.115768
C      -0.380065    0.005165   -0.351568
C       0.711444   -0.544183   -1.258657
C       1.344903    0.269109   -2.305922
O       2.023058    0.000859   -1.068833
C       0.682883   -2.048076   -1.428345
O      -0.500810   -2.523477   -2.021835
C       1.926952   -2.788231   -1.803625
C       1.361718   -2.919659   -0.402105
H       0.652456    1.832593    0.201068
H      -0.610738    2.075599   -1.018077
H      -1.058228    1.797234    0.664228
H      -0.294303   -0.515952    0.611583
H      -1.348965   -0.286131   -0.775398
H       1.762438   -0.228044   -3.179442
H       1.054232    1.306450   -2.452859
H      -1.173609   -2.588430   -1.335962
H       1.796487   -3.627095   -2.476850
H       2.840665   -2.218687   -1.920736
H       1.899935   -2.434889    0.405045
H       0.872730   -3.852130   -0.141578
