19

C       0.051615    1.480288    0.210185
C      -0.006297   -0.037128   -0.008580
C      -1.448519   -0.556453    0.047225
C       0.636976   -0.437907   -1.362323
O      -0.028960    0.155801   -2.443542
C       2.119025   -0.076107   -1.425862
O       2.530418    0.680611   -2.285038
C       2.995730   -0.680735   -0.448889
C       3.714960   -1.204859    0.361601
H       1.081390    1.851010    0.250454
H      -0.463003    2.000052   -0.602729
H      -0.435421    1.751535    1.151531
H       0.574814   -0.535619    0.777776
H      -2.043565   -0.120858   -0.760481
H      -1.485253   -1.646243   -0.055508
H      -1.917047   -0.291517    1.000232
H       0.582640   -1.537709   -1.445505
H       0.644367    0.673056   -2.914465
H       4.361514   -1.659857    1.072730
