13

N      -0.044560    1.368127    0.158454
C       0.023424    0.012479    0.057263
N      -1.056100   -0.766863    0.034118
N      -0.556709   -2.038022   -0.010968
C       0.775338   -2.106247   -0.021850
C       1.206511   -0.788379    0.018039
N       2.550489   -0.349695   -0.011320
O       3.439252   -1.197560   -0.028921
O       2.750077    0.872029   -0.024012
H       0.806182    1.855706   -0.077445
H      -0.918328    1.794301   -0.104553
H      -1.208668   -2.803869   -0.030562
H       1.333612   -3.026245   -0.059194
