20

O      -0.026852    1.422060   -0.227700
C       0.034296    0.031669    0.053326
C      -1.373062   -0.534960   -0.073423
C      -1.442637   -2.036768    0.227658
C      -2.842563   -2.607544    0.096751
O      -3.780773   -2.067729    0.995115
C      -3.356641   -3.047718   -1.253196
C      -3.036156   -4.066532   -0.173455
H       0.858664    1.786181   -0.139463
H       0.708453   -0.487569   -0.648092
H       0.418892   -0.153910    1.069702
H      -2.022075    0.017443    0.617075
H      -1.740272   -0.334585   -1.087432
H      -0.773467   -2.581691   -0.449937
H      -1.084535   -2.226070    1.248141
H      -3.994438   -1.176248    0.699542
H      -4.404485   -2.867640   -1.466093
H      -2.698191   -2.978817   -2.112838
H      -2.158871   -4.692757   -0.294687
H      -3.873688   -4.542113    0.323237
