20

C       0.011185    1.529037   -0.009762
C      -0.029661   -0.007088    0.040194
C      -1.463339   -0.530244   -0.001370
O       0.671101   -0.562458   -1.085251
C       2.036486   -0.753477   -0.735876
C       2.029887   -1.180984    0.739759
C       0.761955   -0.534887    1.234473
N       0.338887   -0.402487    2.423972
O       1.236286   -0.960800    3.352766
H       1.040678    1.899462   -0.013071
H      -0.485604    1.884004   -0.917402
H      -0.494303    1.949170    0.864071
H      -1.967815   -0.174556   -0.904471
H      -1.468279   -1.622972   -0.008303
H      -2.014471   -0.183114    0.876015
H       2.448807   -1.506512   -1.411783
H       2.613071    0.175268   -0.867679
H       1.954788   -2.269302    0.847179
H       2.904380   -0.858371    1.309988
H       0.795067   -0.788135    4.191416
