17

C       0.083712    1.522729   -0.244197
C       0.005664    0.013865    0.052084
C      -1.396121   -0.497732    0.172649
C      -2.176072   -0.807575    1.266211
C      -3.430348   -1.207706    0.734258
N      -3.429026   -1.150277   -0.604645
N      -2.194588   -0.718752   -0.908506
C      -4.575018   -1.628030    1.458141
C      -5.525929   -1.979227    2.106653
H       1.125547    1.848278   -0.318546
H      -0.414899    1.769291   -1.186902
H      -0.401604    2.099618    0.548144
H       0.535044   -0.541469   -0.732770
H       0.530139   -0.204608    0.987057
H      -1.892012   -0.760233    2.304553
H      -1.952184   -0.606138   -1.879131
H      -6.371311   -2.291081    2.667951
