18

C       0.100641   -1.244862   -0.066822
C       0.018622   -0.045734   -0.057401
C      -0.048808    1.410232   -0.043150
C       1.342197    2.053254    0.095165
C       1.288283    3.547562    0.111286
N       0.247588    4.270374    0.024626
C       0.699387    5.668019    0.086448
C       2.241684    5.575899    0.228653
O       2.502157    4.154665    0.232866
H       0.156311   -2.304913   -0.076928
H      -0.526062    1.776979   -0.958247
H      -0.687419    1.752505    0.778258
H       1.833364    1.710933    1.013046
H       1.994879    1.735535   -0.725812
H       0.392424    6.200598   -0.819848
H       0.229122    6.175748    0.935156
H       2.786813    6.022500   -0.607640
H       2.622048    5.997552    1.163283
