23

C      -0.118310    1.588727    0.007731
C       0.023582    0.070113    0.012273
C      -1.342300   -0.590006   -0.211368
C       1.065290   -0.594359   -0.943259
C       2.484858    0.027144   -0.909866
C       2.774453   -0.676943    0.438292
C       2.080664   -0.002897    1.647199
C       0.722264   -0.619892    1.226946
C       1.487926   -1.557806    0.224573
H       0.834768    2.100302    0.164380
H      -0.527395    1.938427   -0.947826
H      -0.803355    1.917857    0.798374
H      -1.770983   -0.285474   -1.173088
H      -1.263460   -1.682532   -0.211750
H      -2.047752   -0.306061    0.578018
H       0.687983   -0.923331   -1.914134
H       3.100731   -0.403243   -1.705857
H       2.581922    1.117053   -0.955257
H       3.778218   -1.074775    0.592280
H       2.422608   -0.453634    2.584239
H       2.155027    1.085330    1.745273
H       0.065150   -0.969687    2.026338
H       1.452526   -2.644512    0.206194
