21

C      -0.121863    1.505103    0.000111
C      -0.012944    0.011298    0.023921
C      -0.055232   -0.931072   -1.163429
C       1.170493   -1.842689   -1.212321
C       1.899402   -1.549562    0.129054
C       0.817762   -0.886055    0.993501
C      -0.434297   -1.816591    1.158668
C      -1.057975   -1.079245   -0.021774
O      -2.418255   -0.902523   -0.222249
H       0.821927    1.975544   -0.300941
H      -0.893932    1.823539   -0.707503
H      -0.392387    1.904523    0.984478
H      -0.493115   -0.554619   -2.082633
H       0.892337   -2.899175   -1.298955
H       1.801632   -1.611973   -2.076166
H       2.313346   -2.450423    0.593522
H       2.730072   -0.852845   -0.032130
H       1.182914   -0.427173    1.913179
H      -0.272905   -2.899348    1.082490
H      -0.980391   -1.599178    2.080481
H      -2.747841   -1.641953   -0.744799
