16

N      -0.137558   -1.181261   -0.231159
C      -0.083740   -0.035112   -0.094321
C      -0.011307    1.432390    0.046500
O      -0.630325    1.865139    1.257632
C       0.417543    2.301054    2.126223
C       1.410936    1.145724    2.466852
C       2.281746    1.636999    1.306940
C       1.504447    2.947389    1.233825
C       1.421886    1.972128    0.101165
H      -0.559261    1.870356   -0.796840
H      -0.035561    2.858086    2.943502
H       1.902867    1.319086    3.427670
H       1.010667    0.128743    2.438636
H       3.346683    1.477668    1.190416
H       1.815545    3.980430    1.166366
H       1.929594    2.177492   -0.832598
