21

C       0.492665    1.486086   -0.155019
N       0.219069    0.063965   -0.191426
C      -0.634603   -0.546061    0.685344
O      -1.236365    0.077870    1.550499
C      -0.748939   -2.027573    0.462292
C      -0.940608   -2.989206    1.613392
C      -1.013426   -2.559937    3.062677
N      -1.999039   -2.774991    0.645799
C      -3.241527   -2.101600    1.018806
H       1.557799    1.683693    0.010346
H       0.186806    1.976004   -1.086441
H      -0.081184    1.905525    0.671950
H       0.668718   -0.496407   -0.895434
H      -0.169035   -2.385131   -0.389371
H      -0.450374   -3.954621    1.476410
H      -1.339562   -1.526774    3.171537
H      -1.696397   -3.216256    3.613790
H      -0.024268   -2.658368    3.522387
H      -3.120234   -1.233634    1.671758
H      -3.740003   -1.774778    0.100600
H      -3.887792   -2.840028    1.503847
