22

C      -0.004226    1.434621    0.134905
N      -0.104236   -0.012834    0.089366
C      -1.284612   -0.671184    0.007752
O      -2.373830   -0.112812   -0.030091
C      -1.214251   -2.207814   -0.040966
O      -2.518006   -2.708173    0.103342
C      -0.556683   -2.724845   -1.346918
C      -0.420558   -4.251463   -1.287975
C      -1.346196   -2.282004   -2.585128
H       0.590638    1.816805   -0.701506
H      -1.016088    1.834311    0.065896
H       0.450010    1.771948    1.072823
H       0.741040   -0.557674    0.140538
H      -0.599821   -2.548588    0.809161
H      -3.085384   -1.918218    0.064791
H       0.452846   -2.291150   -1.399517
H      -1.405142   -4.715027   -1.179512
H       0.043209   -4.637748   -2.201122
H       0.194591   -4.565842   -0.437657
H      -1.399958   -1.191898   -2.668998
H      -0.881803   -2.667276   -3.497953
H      -2.369091   -2.665211   -2.533540
