19

C      -0.130124    1.496946    0.011665
N      -0.019450    0.044157    0.027976
C       0.056943   -0.601280   -1.210324
O       0.046491    0.006101   -2.268722
N       0.184968   -1.963654   -1.163896
C      -0.057242   -2.824192   -0.016218
C       0.049264   -2.018061    1.240085
C       0.055979   -0.680357    1.232410
C       0.155176    0.120711    2.501261
H       0.728830    1.974460    0.494369
H      -0.160832    1.799233   -1.033134
H      -1.044863    1.834082    0.510564
H       0.170981   -2.373947   -2.084050
H      -1.045070   -3.315216   -0.088584
H       0.684215   -3.636090   -0.016676
H       0.111688   -2.548935    2.180930
H       0.204434   -0.552527    3.358405
H       1.049530    0.753370    2.513227
H      -0.708000    0.780943    2.637347
