17

C      -0.069451    1.549494    0.100941
C       0.007093    0.028776   -0.007097
C       0.741917   -0.488116   -1.298725
C       0.743309   -1.962995   -1.274550
C       0.723512   -3.161712   -1.217898
C       0.031807   -0.019627   -2.504247
C      -0.568824    0.368609   -3.468348
C       2.133555    0.001818   -1.317122
C       3.263144    0.407811   -1.303875
H       0.928967    1.994677    0.127029
H      -0.613626    1.978959   -0.744723
H      -0.591680    1.831072    1.019945
H       0.541720   -0.395520    0.847819
H      -0.994402   -0.411198   -0.019821
H       0.714753   -4.223198   -1.183410
H      -1.088280    0.704011   -4.331972
H       4.265478    0.759217   -1.307525
