16

C       0.062553    1.482282   -0.002543
C      -0.059226   -0.007483    0.022920
C      -1.219339   -0.697787   -0.038760
C      -1.179858   -2.133859   -0.003308
N      -2.366667   -2.819001   -0.019432
C       0.035370   -2.764174    0.089154
C       1.265178   -2.039857    0.158926
O       2.388111   -2.462242    0.242469
O       1.130578   -0.616645    0.116401
H       0.679281    1.797340   -0.850762
H      -0.917976    1.955266   -0.079210
H       0.560436    1.836507    0.906128
H      -2.161893   -0.169534   -0.103655
H      -3.179686   -2.347017   -0.379194
H      -2.335126   -3.807992   -0.207782
H       0.117723   -3.843694    0.116749
