23

C      -0.150482    1.580581    0.009354
C       0.045552    0.065077   -0.002590
C       0.872875   -0.480759   -1.202426
C       1.595769   -1.696093   -0.624294
C       2.586352   -1.483035    0.516963
C       2.309081   -0.155915    1.219452
C       0.786031   -0.521205    1.213817
C       1.173167   -1.973521    0.794271
C       0.654119   -3.261778    1.356998
H       0.808287    2.108725    0.054770
H      -0.669846    1.918694   -0.893867
H      -0.746569    1.897996    0.871980
H      -0.945589   -0.409569   -0.033214
H       0.229727   -0.756329   -2.044259
H       1.575172    0.274678   -1.576259
H       1.815176   -2.543757   -1.265661
H       3.515212   -2.042689    0.553585
H       2.714959   -0.146836    2.234497
H       2.612813    0.769543    0.716627
H       0.263727   -0.387666    2.163100
H      -0.418876   -3.383751    1.162960
H       1.167275   -4.119678    0.908878
H       0.801142   -3.319214    2.442135
