18

N       0.017894   -1.147469    0.175026
C       0.026040    0.005806    0.096217
C       0.014716    1.452487   -0.037918
C      -1.216471    2.046564   -0.717774
C      -0.888415    3.261939   -1.601495
C       0.129656    4.202500   -0.946817
C       1.473030    3.488200   -0.743589
C       1.319242    2.164613   -0.032173
O       0.486853    2.148060    1.127087
H      -1.709637    1.270282   -1.309795
H      -1.914710    2.327107    0.079174
H      -0.484075    2.912826   -2.560615
H      -1.815682    3.796132   -1.830971
H       0.280645    5.089692   -1.569230
H      -0.249937    4.549124    0.020612
H       1.950475    3.294006   -1.713099
H       2.168090    4.114719   -0.172215
H       2.220750    1.559049    0.063662
