17

C       0.116684    1.520617   -0.164970
C      -0.040461    0.030103   -0.095124
C      -1.211539   -0.643773    0.048524
C      -2.580886   -0.037409    0.166140
C      -1.180467   -2.102053    0.098021
N      -2.209528   -2.831822    0.229184
O       0.085602   -2.692056   -0.009629
C       1.169400   -1.908139   -0.148309
N       1.189230   -0.638719   -0.196186
H       0.783027    1.855021    0.637761
H       0.606167    1.791891   -1.106789
H      -0.824529    2.062562   -0.089161
H      -2.562707    1.051100    0.125011
H      -3.229421   -0.411080   -0.632880
H      -3.052462   -0.348375    1.103999
H      -1.957335   -3.819949    0.239176
H       2.076136   -2.501860   -0.219196
