19

O       0.080387   -0.014886    0.104227
C       0.022958    1.182904   -0.021162
C      -1.268702    2.003203   -0.200687
C      -0.824607    3.285013   -0.901625
C      -1.370919    3.646668   -2.259388
C      -1.728235    4.479305   -1.048878
C       0.656687    3.444459   -0.635007
C       1.096679    3.356816    0.789910
C       1.185351    2.119845   -0.100561
H      -2.003467    1.420629   -0.760518
H      -1.701927    2.197423    0.789168
H      -0.690404    4.074040   -2.989162
H      -2.137370    3.009140   -2.687781
H      -2.738707    4.406142   -0.659941
H      -1.288819    5.467800   -0.961301
H       1.246220    4.029683   -1.332348
H       2.047596    3.804622    1.055464
H       0.355530    3.382621    1.581812
H       2.159386    1.713417   -0.340357
