15

N      -0.254597    1.437863   -0.006759
C      -0.012909    0.031359   -0.016069
C      -1.070756   -0.854497   -0.094000
O      -2.387838   -0.596752   -0.168102
N      -0.596756   -2.122489   -0.087047
C       0.799691   -2.088392   -0.003581
C       1.170340   -0.754843    0.041275
C       1.561550   -3.266923    0.021768
C       2.199745   -4.291252    0.042447
H       0.194818    1.904222   -0.789054
H       0.098187    1.876835    0.838400
H      -2.447564    0.371671   -0.155318
H      -1.154528   -2.957525   -0.134343
H       2.187082   -0.399307    0.107924
H       2.771687   -5.184940    0.061438
