18

C      -0.025320    1.472518    0.009689
C       0.011797    0.017359   -0.004205
C       0.039527   -1.186857   -0.005394
C       0.074675   -2.646538   -0.032793
C       0.877794   -3.169725   -1.227021
C       0.410261   -3.318904    1.350599
C      -1.048478   -3.827293    1.338372
O      -1.754643   -4.446879    2.086107
N      -1.262223   -3.276315    0.096665
H       0.641159    1.878358    0.778563
H       0.286275    1.888800   -0.954421
H      -1.035661    1.839797    0.220192
H       1.906426   -2.800642   -1.184036
H       0.889325   -4.263325   -1.221621
H       0.436222   -2.829116   -2.168142
H       1.171722   -4.099702    1.308305
H       0.630297   -2.620711    2.157992
H      -2.119947   -3.092060   -0.404637
