16

C       0.056887    1.321712    0.245584
N      -0.029137   -0.035325   -0.264844
C      -1.176062   -0.774644   -0.097495
C      -1.340204   -2.160886   -0.075495
C      -2.749359   -2.417075    0.050238
C      -3.382058   -1.213080    0.107551
N      -2.412625   -0.216172    0.021838
C      -0.272986   -3.076298   -0.151226
N       0.638216   -3.794192   -0.210780
H       1.074008    1.687830    0.096059
H      -0.607262    1.988605   -0.317615
H      -0.191753    1.405208    1.314487
H       0.806470   -0.590097   -0.149497
H      -3.209275   -3.390739    0.097457
H      -4.422737   -0.956669    0.209750
H      -2.599786    0.770521    0.008800
