25

C      -0.047463    1.560556    0.090912
C      -0.024521    0.033305   -0.052730
C       0.733557   -0.512052   -1.284093
C       0.082658    0.037140   -2.563816
C       2.289590   -0.258701   -1.229594
C       2.806651   -1.713401   -1.217357
C       1.922797   -2.387054   -2.302935
C       0.788141   -2.070131   -1.281134
C       1.857097   -2.390894   -0.191056
H       0.964437    1.979932    0.104347
H      -0.595382    2.043427   -0.723316
H      -0.534590    1.849196    1.027760
H       0.406597   -0.391179    0.859258
H      -1.058995   -0.334884   -0.095548
H       0.196838    1.123005   -2.635701
H       0.521714   -0.390937   -3.467840
H      -0.991382   -0.184232   -2.580214
H       2.650310    0.302187   -2.097725
H       2.591790    0.289969   -0.331928
H       3.887824   -1.855994   -1.183632
H       1.887717   -1.939827   -3.299033
H       2.111671   -3.459937   -2.388154
H      -0.172723   -2.588062   -1.312730
H       2.040354   -3.464285   -0.099106
H       1.760616   -1.949191    0.803408
