14

O       0.165171    1.517617    0.281391
C       0.083929    0.141445    0.468409
C      -1.092938   -0.454693   -0.280894
O      -1.854222    0.249956   -0.900854
C      -1.255427   -1.951916   -0.216699
O      -2.557763   -2.465716   -0.458948
C      -1.575707   -2.733828   -1.443183
C      -1.727546   -2.110895   -2.740931
N      -1.814691   -1.685307   -3.811159
H      -0.598131    1.755124   -0.268517
H       1.004010   -0.367043    0.130723
H      -0.031574   -0.119255    1.536067
H      -0.690423   -2.468706    0.559370
H      -1.227919   -3.765012   -1.486536
