18

C       0.397106    1.508577    0.205856
O       1.252358    0.411550   -0.136989
C      -0.127275    0.144103    0.091799
C      -0.466588   -0.721812    1.284586
C       0.065128   -2.147781    1.139833
C      -0.199304   -2.918728    2.435929
N       0.179238   -2.169869    3.631388
C       0.296498   -0.917083    3.531529
O       0.072069   -0.106443    2.464118
H       0.562921    1.929645    1.192923
H       0.209882    2.221553   -0.595626
H      -0.690704   -0.125138   -0.804065
H      -1.561891   -0.742408    1.389908
H      -0.405707   -2.635584    0.279894
H       1.140841   -2.091073    0.943350
H      -1.260833   -3.189810    2.517027
H       0.355618   -3.862928    2.439354
H       0.617587   -0.315102    4.379638
