12

O       0.038284   -0.034158   -0.082170
C       0.017465    1.158937    0.069039
C       1.222030    2.028675    0.025987
C       1.764874    3.046355    1.067518
C       2.873249    2.887956   -0.000190
O       2.572337    1.434480   -0.049432
C       1.783661    3.016642   -1.091250
O       1.548989    3.449005   -2.163734
H      -0.926232    1.723939    0.236309
H       1.265690    4.011781    1.177343
H       2.023259    2.574968    2.017050
H       3.919266    3.183381    0.024312
