21

C      -0.078535    1.684328   -0.345734
C      -0.321818    0.197444   -0.613629
C       0.977342   -0.582940   -0.844409
O       1.882575   -0.446571    0.260238
C       0.779399   -2.038198   -1.165691
C      -0.339079   -2.753005   -1.268276
C      -0.013463   -4.180040   -1.604694
O       1.408747   -4.242607   -1.639296
C       1.958975   -2.947116   -1.422073
H       0.596367    1.816962    0.503469
H       0.380719    2.170658   -1.213434
H      -1.016184    2.204443   -0.129242
H      -0.857899   -0.254277    0.232408
H      -0.966701    0.072014   -1.491477
H       1.520677   -0.114582   -1.678066
H       1.484707   -0.903828    1.010419
H      -1.353824   -2.395427   -1.150513
H      -0.398728   -4.890526   -0.856021
H      -0.432659   -4.483975   -2.578495
H       2.536902   -2.624286   -2.304433
H       2.657038   -2.972115   -0.573966
