16

O      -0.137555    0.009540    0.108439
C      -0.002797    1.188647   -0.109520
C       1.271929    1.912791    0.059789
C       1.328149    3.372317    0.338625
N       1.729530    2.941856   -0.996487
C       3.140333    2.375062   -0.832292
C       2.645371    1.268979    0.153416
C       3.698820    1.906408   -2.082308
C       4.175527    1.499208   -3.107250
H      -0.843579    1.823973   -0.467595
H       0.390586    3.920681    0.342551
H       2.075808    3.739258    1.039853
H       3.805645    3.119361   -0.380208
H       3.112179    1.235124    1.140163
H       2.665156    0.276272   -0.294470
H       4.593376    1.145074   -4.017247
