18

C      -0.025268    1.514016   -0.208277
C       1.511106    1.413589    0.147942
C       1.062095    0.116670    0.840011
C       0.974677   -1.416477    1.161046
C       1.355378   -1.633512    2.610456
O       0.782911   -0.463471    3.229384
C       0.172143    0.201301    2.145531
C      -0.506129   -0.784544    1.177682
N      -0.112468    0.000979   -0.059166
H      -0.586621    2.119502    0.511087
H      -0.282110    1.829400   -1.221265
H       2.123305    1.253530   -0.742347
H       1.946720    2.194001    0.774622
H       1.232961   -2.142524    0.393341
H       0.916969   -2.540320    3.045395
H       2.438990   -1.652918    2.777550
H      -0.301465    1.119089    2.484900
H      -1.441258   -1.341479    1.280623
