19

C      -0.136595    1.294417    0.258847
C      -0.523847   -0.074958   -0.237524
O      -0.808474   -0.333575   -1.387345
O      -0.502701   -0.971677    0.757309
C      -0.706632   -2.369049    0.433800
C      -2.134561   -2.724606    0.008604
O      -2.325179   -2.648572   -1.391506
C      -2.470551   -4.172168    0.382342
O      -3.735376   -4.538419   -0.116586
H       0.918571    1.293701    0.548728
H      -0.299703    2.028043   -0.529311
H      -0.717861    1.552638    1.147432
H      -0.006663   -2.663892   -0.353934
H      -0.442684   -2.878988    1.363417
H      -2.831792   -2.055283    0.539807
H      -1.918022   -1.821628   -1.693450
H      -1.674848   -4.832055   -0.005556
H      -2.500947   -4.284027    1.471646
H      -3.754988   -4.214993   -1.026566
