18

C      -0.238886    1.473638    0.079698
C       0.031292   -0.017943   -0.075579
C      -1.201215   -0.876182   -0.219197
C      -1.246532   -1.806859    0.732793
C      -0.044158   -1.715775    1.643867
N       0.818878   -0.692167    1.027847
C       1.831091   -1.217891    0.071539
C       1.173386   -0.400268   -1.046825
O       1.440041   -0.131246   -2.178943
H       0.690119    2.016415    0.273601
H      -0.685652    1.870870   -0.837421
H      -0.927932    1.655884    0.909825
H      -1.944031   -0.703247   -0.988271
H      -2.046645   -2.523854    0.877889
H      -0.336234   -1.432972    2.665271
H       0.500615   -2.665720    1.731757
H       2.865494   -0.949028    0.310418
H       1.781649   -2.302080   -0.105674
