14

C      -0.394884    1.428902    0.148690
C       0.069780   -0.007471    0.085425
O       1.274300   -0.147587   -0.767604
C       2.022261   -0.658430    0.249193
O       3.166555   -0.976499    0.246764
C       0.857940   -0.636027    1.257283
C       1.096684    0.076589    2.567362
O       0.417039    0.968537    3.002899
H       0.400046    2.091098    0.497093
H      -0.710149    1.751927   -0.847694
H      -1.238499    1.521772    0.836342
H      -0.709492   -0.664581   -0.308584
H       0.558155   -1.664368    1.493608
H       1.975591   -0.314478    3.123698
