17

C       0.059424    1.566508    0.087474
C       0.005599    0.054705   -0.035560
C       0.724644   -0.500765   -1.260140
C       0.722617   -2.041465   -1.190522
N       1.138005   -2.550242    0.121129
C       1.061097   -1.752599    1.105039
O       0.607992   -0.487731    1.165240
C      -0.603042   -2.581175   -1.538748
N      -1.653449   -2.972473   -1.819693
H       1.095553    1.917828    0.098284
H      -0.458565    2.029987   -0.757105
H      -0.425246    1.890667    1.011845
H      -1.038562   -0.284371   -0.046391
H       0.246325   -0.144361   -2.176272
H       1.764478   -0.156551   -1.262710
H       1.428026   -2.439770   -1.929156
H       1.408315   -2.071937    2.086084
