23

C       0.155439    1.468331    0.347124
C      -0.026674    0.016268   -0.129027
C      -1.453263   -0.449578   -0.110791
C      -2.171783   -0.882255   -1.153327
C      -3.539718   -1.352568   -0.771033
C      -4.712008   -1.093577   -1.687751
C      -3.526607   -2.560568    0.148917
C      -3.580476   -1.172316    0.740468
C      -2.272237   -0.516228    1.172154
H       1.208928    1.761853    0.306006
H      -0.414788    2.159416   -0.281740
H      -0.185084    1.597584    1.379284
H       0.373947   -0.088438   -1.143726
H       0.580521   -0.640011    0.511221
H      -1.808743   -0.930490   -2.175848
H      -4.600851   -1.630284   -2.637697
H      -5.650064   -1.425658   -1.231526
H      -4.810452   -0.026806   -1.919193
H      -4.436432   -3.150605    0.212163
H      -2.609287   -3.135306    0.232487
H      -4.500595   -0.873779    1.230540
H      -1.752618   -1.085200    1.955771
H      -2.445470    0.485419    1.588631
