16

O      -0.016536   -0.099899   -0.034878
C       0.018307    1.093399   -0.143655
C       1.307072    1.917294   -0.059123
O       2.408766    1.051403    0.029609
C       3.634772    1.695952   -0.255219
C       3.650467    2.160290   -1.705689
N       2.471581    2.981020   -1.945011
C       1.322491    2.925110   -1.223218
O       0.350676    3.625104   -1.441240
H      -0.879188    1.720322   -0.307870
H       1.207664    2.538053    0.852314
H       3.795985    2.552136    0.419308
H       4.423777    0.961178   -0.078921
H       4.551031    2.752131   -1.903146
H       3.664810    1.286958   -2.371095
H       2.447614    3.609608   -2.735167
