27

C       0.081740    0.715040   -1.295775
C      -0.218294    0.389976    0.172170
C      -1.570315   -0.334147    0.380767
C      -1.403897   -1.819339    0.019515
O      -2.637910   -2.327160   -0.475306
C      -2.205682   -0.082353    1.791630
C      -2.639678    1.394773    1.896380
C      -3.468602   -0.945015    1.990914
C      -1.210689   -0.393872    2.927463
H       1.064275    1.185900   -1.402429
H       0.076572   -0.180013   -1.926717
H      -0.665412    1.405302   -1.702358
H       0.592439   -0.225725    0.584097
H      -0.196768    1.324081    0.740800
H      -2.281163    0.064304   -0.356412
H      -0.621068   -1.922187   -0.746586
H      -1.064099   -2.389454    0.898531
H      -2.527374   -3.267030   -0.646908
H      -3.364919    1.646147    1.114510
H      -3.117440    1.583406    2.863997
H      -1.799343    2.089758    1.810031
H      -3.242877   -2.013707    1.998706
H      -3.942780   -0.693141    2.946439
H      -4.196766   -0.775975    1.192606
H      -0.325471    0.247831    2.886847
H      -1.686410   -0.234731    3.901254
H      -0.872236   -1.435110    2.899048
