21

C      -0.144301    1.313072    0.117961
O       0.225153   -0.031709   -0.075524
C       0.778176   -0.639644    1.072223
C      -0.270153   -1.052449    2.161384
C      -0.044570   -2.579442    2.129863
O      -0.746610   -3.372480    3.035357
C       1.500417   -2.671824    2.121220
C       1.321949   -2.031390    0.713205
C       0.020396   -2.872082    0.594981
H       0.716017    1.930557    0.421672
H      -0.526852    1.686263   -0.835264
H      -0.930427    1.425187    0.880232
H       1.562921    0.009977    1.489370
H      -0.069445   -0.629937    3.150012
H      -1.284693   -0.772893    1.857312
H      -1.683499   -3.160739    2.962563
H       2.054814   -2.118410    2.885462
H       1.850682   -3.704312    2.066720
H       2.103877   -2.067214   -0.042772
H       0.219877   -3.926688    0.395698
H      -0.774976   -2.491522   -0.049478
