17

O      -0.662881    1.389782    0.313294
C       0.494123    1.230108    0.602216
C       1.610378    2.199013    0.184782
O       2.740717    1.955884    0.529775
C       1.174961    3.387989   -0.660513
O       2.231009    4.200378   -1.089107
C       2.524416    5.279403   -0.244111
C       3.461140    5.102170    0.923077
C       3.910685    5.823699   -0.332541
H       0.868006    0.372216    1.200348
H       0.668172    2.985549   -1.548096
H       0.405171    3.945307   -0.104302
H       1.696565    5.981504   -0.138299
H       3.277629    5.682319    1.821179
H       3.852474    4.105821    1.082397
H       4.592228    5.291127   -0.985624
H       4.046576    6.898807   -0.308272
