19

C      -0.096481    1.549372   -0.003474
C       0.034584    0.031354    0.005598
O       0.744867   -0.387473   -1.171905
C       1.868625   -1.230426   -0.859611
C       2.826569   -0.388047    0.000195
O       2.139944    0.016596    1.186492
C       0.801432   -0.516005    1.232649
C       0.844577   -2.020037    1.109879
C       1.423441   -2.408667   -0.026570
H       0.879810    2.020019    0.134336
H      -0.519392    1.881798   -0.955106
H      -0.760329    1.879544    0.802942
H      -0.966164   -0.425688   -0.014247
H       2.320193   -1.505141   -1.813739
H       3.725590   -0.958254    0.270113
H       3.125546    0.508313   -0.557572
H       0.366401   -0.159300    2.167134
H       0.437538   -2.676670    1.869862
H       1.587305   -3.434344   -0.335577
