14

N      -0.019177    1.341918   -0.109201
C       0.005947   -0.018382   -0.046062
N      -1.182541   -0.641301   -0.032327
C      -1.145706   -1.979464   -0.017435
C       0.059517   -2.691142   -0.013019
C       1.220370   -1.927852   -0.014739
N       1.221727   -0.598488   -0.029276
C      -2.396028   -2.675473   -0.002202
C      -3.430137   -3.289989    0.010784
H       0.836559    1.827623    0.097514
H      -0.892995    1.796748    0.092399
H       0.077818   -3.771971    0.000368
H       2.196918   -2.407741   -0.001107
H      -4.350250   -3.820570    0.021590
