18

N      -0.190757   -1.132891    0.361174
C      -0.128518    0.000521    0.145503
C      -0.023571    1.437313   -0.134130
C       1.392794    1.928415   -0.108578
C       2.359853    2.208983    1.015618
C       3.448204    1.356738    0.366851
C       2.688018    1.590026   -0.968066
C       2.845420    3.112979   -1.233180
C       1.980447    3.314270    0.009444
H      -0.493328    1.630953   -1.107125
H      -0.618970    1.978588    0.611399
H       2.128772    2.320678    2.067740
H       4.488795    1.696902    0.416133
H       3.381805    0.316235    0.694124
H       2.749372    0.869208   -1.780498
H       3.864030    3.517210   -1.240535
H       2.319635    3.427299   -2.139057
H       1.480203    4.214872    0.344018
