19

C       0.140141    1.347417   -0.377474
C       0.029144   -0.106676    0.121682
C       0.673174   -0.253134    1.506491
C      -1.401288   -0.586400    0.091028
C      -2.221199   -0.863215    1.164484
N      -3.447991   -1.249921    0.681918
C      -3.432622   -1.230531   -0.688378
C      -2.181473   -0.823407   -1.083406
H       1.186734    1.669446   -0.420038
H      -0.290612    1.458393   -1.376855
H      -0.398706    2.026147    0.292912
H       0.602625   -0.732555   -0.577299
H       0.626315   -1.287166    1.861644
H       1.724516    0.050400    1.478696
H       0.168703    0.381101    2.244873
H      -2.035259   -0.822694    2.225198
H      -4.231673   -1.519856    1.248943
H      -4.303858   -1.508938   -1.259416
H      -1.848814   -0.709625   -2.104680
