24

C       0.084171    1.596009   -0.057501
C       0.219905    0.071284   -0.098599
C       0.457372   -0.539676    1.291254
C       0.656564   -2.049717    1.290479
C      -0.556564   -2.849298    0.844022
C       2.019039   -2.595870    0.914590
C       1.534340   -2.703261    2.343008
C       2.221309   -1.961754    3.469792
H       0.988523    2.064382    0.347414
H      -0.085746    2.010092   -1.056420
H      -0.755629    1.902237    0.576574
H      -0.683587   -0.358624   -0.546734
H       1.050486   -0.208421   -0.759248
H       1.331233   -0.049285    1.734232
H      -0.392557   -0.287663    1.942449
H      -0.837922   -2.622426   -0.190054
H      -0.362964   -3.925228    0.900160
H      -1.425548   -2.634943    1.478506
H       2.074897   -3.493693    0.307184
H       2.809698   -1.878680    0.712249
H       1.196118   -3.695390    2.635608
H       2.631687   -1.000991    3.147167
H       1.535403   -1.767512    4.302507
H       3.056731   -2.552988    3.861614
