17

C      -0.094325    1.567976   -0.061748
C       0.315990    0.094579    0.043678
C       0.950049   -0.423897   -1.227631
O       2.369826   -0.235426   -1.351691
C       1.867638   -1.553473   -1.137543
C       2.116631   -2.155991    0.221834
O       2.016074   -1.223870    1.296342
C       1.215786   -0.128699    1.264579
O       1.220049    0.608880    2.210346
H       0.778700    2.193263   -0.268047
H      -0.816499    1.702547   -0.872770
H      -0.540193    1.908889    0.872879
H      -0.586306   -0.512135    0.221590
H       0.391233   -0.250508   -2.146793
H       1.981776   -2.243165   -1.973812
H       1.409472   -2.982402    0.380691
H       3.129037   -2.565831    0.289419
