18

N      -0.038216    1.329329    0.102376
C       0.046005   -0.038421    0.073482
O       1.115902   -0.621226    0.077761
C      -1.263825   -0.753377    0.066778
C      -1.358731   -2.081162   -0.047466
C      -2.788853   -2.561111   -0.052771
O      -3.027573   -3.713472    0.740405
C      -3.580009   -1.300633    0.392202
C      -2.633516   -0.101517    0.142299
H       0.822021    1.843938    0.004452
H      -0.901883    1.812425   -0.072159
H      -0.510422   -2.747223   -0.149434
H      -3.079189   -2.871891   -1.065351
H      -2.682992   -3.534594    1.622762
H      -4.543839   -1.204438   -0.112176
H      -3.784096   -1.396705    1.464510
H      -2.702028    0.659172    0.928709
H      -2.876855    0.402543   -0.803750
