18

N      -0.107832    1.495185    0.149011
C       0.030090    0.044043    0.008829
C       0.723457   -0.472264   -1.277925
C      -0.030396   -0.087165   -2.552145
C       0.625660   -0.638965   -3.812172
O      -0.138103   -0.196208   -4.921812
C       0.744053   -0.478801    1.187018
N       1.333151   -0.904870    2.084784
H       0.799316    1.944128    0.058937
H      -0.697556    1.855336   -0.593768
H      -0.984071   -0.375902    0.042407
H       1.747252   -0.077446   -1.303715
H       0.811876   -1.563491   -1.209410
H      -1.062977   -0.456373   -2.508855
H      -0.088028    1.002859   -2.651913
H       1.667356   -0.283319   -3.874211
H       0.660742   -1.739359   -3.761793
H       0.260357   -0.547490   -5.723360
