17

C       0.016322    1.511785    0.027645
C       0.012557    0.008092   -0.006529
C      -0.135235   -0.719543   -1.184280
N      -0.115177   -2.053223   -1.230742
C       0.048980   -2.686421   -0.067160
C       0.102420   -4.195402   -0.095495
O       1.437329   -4.588304    0.196895
N       0.172610   -2.100639    1.130185
C       0.157100   -0.771486    1.144155
H       1.033539    1.904636    0.140552
H      -0.396890    1.929049   -0.894776
H      -0.572787    1.893996    0.867102
H      -0.277895   -0.205453   -2.134108
H      -0.599424   -4.583262    0.657393
H      -0.216126   -4.534343   -1.089551
H       1.442055   -5.543240    0.311330
H       0.254410   -0.296569    2.120174
