18

C       0.076971    1.365668    0.190461
O      -0.012208   -0.038459    0.248344
C      -1.267121   -0.524288   -0.176843
C      -1.213889   -2.030818   -0.122333
C      -1.586332   -2.783829    1.106644
C      -2.473796   -2.898616   -0.129442
C      -3.829921   -2.306594   -0.090410
O      -4.779342   -2.743326   -0.693734
H       1.077455    1.643430    0.530069
H      -0.069429    1.743352   -0.833973
H      -0.667058    1.850288    0.842682
H      -2.069030   -0.127266    0.467062
H      -1.481974   -0.184818   -1.204772
H      -0.400041   -2.441792   -0.712560
H      -1.017163   -3.660605    1.391790
H      -1.986094   -2.215260    1.941074
H      -2.423027   -3.814809   -0.707563
H      -3.934535   -1.413194    0.567751
