24

C      -0.558659    1.140323    0.144417
N       0.082028   -0.165212    0.160875
C       1.463059   -0.241516   -0.301650
C       1.136623   -0.465310    1.136224
C       1.598978    0.494039    2.216246
C       0.737789    0.444315    3.475345
C       0.748093   -0.840464    4.356322
C       0.706795    0.068921    5.613726
C       1.190087    1.248135    4.727306
H       0.112139    1.990406    0.345849
H      -1.001166    1.296341   -0.845040
H      -1.368726    1.160200    0.881047
H       1.706816   -1.070498   -0.961866
H       1.967053    0.694076   -0.547300
H       1.088433   -1.499757    1.477650
H       2.632917    0.232271    2.482850
H       1.638731    1.520267    1.833235
H      -0.297269    0.705011    3.225514
H      -0.058416   -1.564757    4.219497
H       1.705143   -1.367669    4.274086
H      -0.316643    0.222332    5.968097
H       1.328083   -0.214183    6.466593
H       2.280371    1.351908    4.755849
H       0.745149    2.232962    4.891556
