16

C      -0.043250    1.395684    0.039663
N       0.274412   -0.016309    0.019685
C      -0.132350   -0.779220    1.190857
C       0.176169   -0.645949   -1.207181
C       0.064069   -0.102403   -2.475359
N       0.074991   -1.196812   -3.285726
N       0.167849   -2.332295   -2.592675
N       0.227784   -2.006675   -1.328534
H       0.565152    1.929158   -0.698211
H      -1.106108    1.606902   -0.172694
H       0.195438    1.803468    1.025319
H      -1.227804   -0.837753    1.302055
H       0.256597   -1.794015    1.112826
H       0.281170   -0.304471    2.085460
H      -0.019557    0.900376   -2.852715
H       0.015277   -1.235881   -4.290240
