11

N       0.085805    1.372108    0.178298
C      -0.066935   -0.002608    0.052204
C      -1.148893   -0.831401    0.002699
C      -0.611330   -2.164910   -0.027153
C       0.735995   -2.043915    0.000654
O       1.084860   -0.712967    0.052398
H       0.927344    1.710927   -0.271093
H      -0.722047    1.883640   -0.148735
H      -2.186109   -0.538283   -0.010412
H      -1.169245   -3.087508   -0.069491
H       1.559415   -2.736441   -0.010585
