15

O      -0.476711    1.699057   -0.287411
N      -0.037783    0.503032   -0.827519
C      -0.702926   -0.512069   -0.398836
C      -0.286972   -1.858419   -0.953134
N       0.193663   -2.755634    0.082690
C      -0.411715   -3.941701    0.372077
O      -1.372006   -4.396878   -0.209283
C      -1.767592   -0.454353    0.542758
C      -2.675246   -0.456811    1.333146
H       0.103798    2.343993   -0.707756
H      -1.139989   -2.363016   -1.414475
H       0.479603   -1.685871   -1.714638
H       0.977498   -2.466213    0.646291
H       0.090217   -4.460146    1.212394
H      -3.478175   -0.451368    2.028896
