15

O       0.081847    1.393812    0.411442
C       0.014382    0.084518   -0.116963
C      -1.365244   -0.502683   -0.031786
C      -1.991421   -1.081871    1.212649
C      -1.769420   -1.943677   -0.006660
O      -2.858026   -2.054477   -0.898179
C      -3.146592   -0.828682   -1.424652
O      -4.026395   -0.605118   -2.188533
O      -2.285309    0.107860   -0.927273
H      -0.487748    1.954406   -0.126783
H       0.353348    0.048360   -1.163251
H       0.699097   -0.527679    0.478368
H      -1.326865   -1.248498    2.053244
H      -3.007369   -0.799865    1.466926
H      -1.106560   -2.798631   -0.030198
