14

O       0.029285    1.418439    0.007798
C       0.023306    0.001947    0.002328
C      -1.401092   -0.442080    0.012153
C      -2.541058    0.303469    0.023267
N      -3.552783   -0.622427    0.028302
C      -4.940146   -0.364746    0.039815
O      -5.787560   -1.205026    0.044024
N      -3.036109   -1.889849    0.020661
N      -1.753673   -1.773147    0.010924
H       0.942966    1.716866    0.001390
H       0.525448   -0.408514   -0.887674
H       0.539779   -0.415483    0.880804
H      -2.713928    1.365126    0.027824
H      -5.129862    0.723820    0.044635
