21

C       0.059216    1.570464    0.064545
C      -0.025367    0.043475    0.004563
N      -1.401223   -0.452046   -0.016940
C      -2.039808   -0.704592    1.272330
C      -3.552238   -0.881816    1.135608
N      -3.915580   -1.790469    0.055041
C      -3.403057   -1.286139   -1.215460
C      -1.979633   -0.716727   -1.228765
O      -1.415159   -0.494354   -2.288985
H       1.104631    1.891681    0.112180
H      -0.393707    2.006511   -0.829586
H      -0.454653    1.971302    0.944863
H       0.463100   -0.317818   -0.902005
H       0.478698   -0.404596    0.869395
H      -1.599403   -1.604047    1.733340
H      -1.820059    0.133011    1.947470
H      -3.962863   -1.246363    2.082559
H      -4.021519    0.088482    0.928887
H      -3.520686   -2.708016    0.240476
H      -3.436948   -2.071246   -1.974636
H      -4.061940   -0.483877   -1.575343
