15

N       0.095222    1.368140    0.062380
C      -0.044986   -0.016344    0.048130
C      -1.164005   -0.828777    0.036556
C      -0.627195   -2.131066    0.129838
O      -1.401311   -3.249222    0.155216
C      -0.815209   -4.452953   -0.098829
N      -1.501157   -5.498200    0.058223
N       0.690440   -2.161208    0.195634
N       1.031990   -0.836730    0.122606
H       0.818969    1.712457   -0.556472
H      -0.775091    1.842849   -0.133806
H      -2.197507   -0.541862   -0.052743
H       0.220522   -4.363754   -0.432062
H      -0.942825   -6.311768   -0.193979
H       1.985934   -0.575169    0.300354
