12

N      -0.028769    1.303380    0.016233
C       0.000396    0.047764    0.009213
O       1.100088   -0.756919    0.001949
C       0.679866   -2.128700   -0.037349
O      -0.743114   -2.131573    0.013886
C      -1.215103   -0.846598    0.022507
O      -2.368405   -0.564717    0.046250
C       1.167203   -2.788266   -1.240999
C       1.585017   -3.350277   -2.214875
H       0.911987    1.701298    0.005187
H       1.057124   -2.623096    0.864391
H       1.949972   -3.844732   -3.082453
