19

C       0.131544    1.490989    0.206127
C       0.218000   -0.035304    0.112435
C       0.599863   -0.515576   -1.286951
C       2.105525   -0.344198   -1.654123
C       2.341785   -1.848330   -1.360116
C       0.798783   -2.070298   -1.435527
C       0.179149   -2.953516   -0.462705
N      -0.307790   -3.645334    0.326310
H       1.084517    1.966226   -0.050196
H      -0.628978    1.885142   -0.476932
H      -0.133974    1.807126    1.219098
H       0.944321   -0.411174    0.844641
H      -0.745786   -0.477280    0.391629
H      -0.103998   -0.102880   -2.015958
H       2.254398   -0.096951   -2.708219
H       2.673146    0.366762   -1.049706
H       2.944071   -2.420022   -2.067926
H       2.723480   -2.024483   -0.352756
H       0.504555   -2.396059   -2.437318
