21

C       0.070181    1.532206    0.084661
C      -0.011187    0.001253    0.032369
C       0.573007   -0.559207   -1.230417
C       0.009295   -0.301356   -2.658228
C       0.805766   -1.541007   -3.070136
C       0.744459   -2.303102   -4.358862
C       2.058141   -1.474590   -2.173600
O       2.004718   -0.278118   -1.403093
C       0.804350   -2.069820   -1.633488
H       1.107348    1.864115   -0.012485
H      -0.506826    1.988504   -0.726123
H      -0.324479    1.910862    1.031804
H       0.524465   -0.431780    0.885285
H      -1.054140   -0.330280    0.109286
H      -1.068119   -0.486894   -2.707386
H       0.254763    0.664169   -3.113652
H       1.082771   -1.685968   -5.199410
H       1.383423   -3.192659   -4.323929
H      -0.275125   -2.638877   -4.580887
H       3.021014   -1.900318   -2.426186
H       0.548999   -3.022464   -1.188706
