19

O       0.088220   -0.071694   -0.040428
C       0.069877    1.101948    0.238290
C       1.279654    1.997026    0.166495
C       1.263532    3.087521   -0.943981
C       0.016045    3.944204   -0.591547
C       0.844519    4.325388    0.641038
C       2.150048    4.190522   -0.205871
C       2.864720    3.568878    1.000893
C       1.450303    3.017962    1.325449
H      -0.871266    1.579654    0.591225
H       2.148345    1.339614    0.070040
H       1.469156    2.760234   -1.962117
H      -0.075761    4.802372   -1.264085
H      -0.960627    3.465309   -0.489637
H       0.635031    5.176059    1.288164
H       2.553418    4.995662   -0.818957
H       3.678883    2.851751    0.857469
H       3.176793    4.346892    1.703929
H       1.169781    2.705337    2.331022
