16

C      -0.198330    1.465654   -0.143692
C      -0.102579   -0.040809   -0.316685
O       0.637428   -0.561770   -1.130079
N      -0.920130   -0.769632    0.506746
C      -1.030486   -2.215647    0.377703
C      -2.404326   -2.658291    0.175525
C      -3.549407   -3.022287    0.032369
C      -4.837111   -3.429366   -0.133308
C      -5.979974   -3.790578   -0.279009
H       0.804719    1.890137   -0.211276
H      -0.790170    1.878656   -0.966719
H      -0.658656    1.766124    0.801146
H      -1.565838   -0.296651    1.116969
H      -0.399093   -2.485945   -0.476191
H      -0.610510   -2.717731    1.260457
H      -6.984392   -4.108985   -0.409642
