23

C       0.047172    1.611723    0.000353
C       0.043512    0.078688    0.030317
C       0.771545   -0.573936   -1.176572
C       1.509673   -1.830677   -0.629688
C       0.714845   -3.126423   -0.892110
C       2.910601   -1.949210   -1.242515
O       3.565435   -3.073419   -0.670048
C       1.568363   -1.532987    0.858802
C       0.775742   -0.524123    1.210058
H       1.072229    1.998937   -0.005403
H      -0.461674    1.990152   -0.892806
H      -0.463502    2.027842    0.875533
H      -1.007174   -0.248955    0.055825
H       0.091099   -0.818347   -1.997545
H       1.505873    0.140046   -1.571433
H       0.639426   -3.323182   -1.968202
H       1.205868   -3.984654   -0.427496
H      -0.298951   -3.047406   -0.487950
H       2.823657   -2.056734   -2.337001
H       3.471185   -1.022904   -1.041553
H       4.446918   -3.135019   -1.048202
H       2.173479   -2.132986    1.528772
H       0.628442   -0.165679    2.224417
