20

C      -0.163521    1.589922    0.028939
C       0.031240    0.066154    0.012849
C       0.817497   -0.450463   -1.180177
C       1.811320   -1.264697   -0.821602
C       1.915262   -1.411033    0.666053
C       2.282081   -2.746187    1.269201
C       2.273551   -0.112101    1.365742
C       0.821370   -0.498411    1.199245
H       0.797844    2.111948    0.056852
H      -0.702871    1.926541   -0.863002
H      -0.741568    1.899869    0.905454
H      -0.970448   -0.390619    0.005318
H       0.584841   -0.151314   -2.196992
H       2.498649   -1.759121   -1.500774
H       3.297802   -3.045885    0.984001
H       2.246224   -2.707706    2.362497
H       1.598232   -3.536189    0.938466
H       2.678105   -0.182629    2.371340
H       2.687079    0.694880    0.770070
H       0.276656   -0.768061    2.097668
