16

C       0.103869    1.419657    0.424173
O      -0.254668    0.419525   -0.532564
C      -1.271936   -0.386526   -0.180187
C      -1.908698   -0.748825    0.991508
O      -1.657628   -0.316177    2.252285
N      -2.873039   -1.644183    0.701343
N      -2.879430   -1.877758   -0.589461
N      -1.911195   -1.111942   -1.133199
C      -1.645304   -1.138273   -2.554479
H       0.929172    1.975823   -0.021410
H      -0.738527    2.093371    0.615672
H       0.422704    0.967153    1.367156
H      -2.304967   -0.752728    2.820277
H      -1.717202   -0.131786   -2.974750
H      -0.646405   -1.535340   -2.755807
H      -2.397318   -1.784868   -3.006014
