19

C      -0.399443    1.167410    1.263419
C       0.115781   -0.070441    0.546874
C       0.556775    0.058827   -0.941781
C       1.953872   -0.501490   -0.537768
C       3.176579    0.343042   -0.864318
N       1.499488   -0.461322    0.865318
C       1.965890   -1.065871    1.981137
O       1.342975   -1.177738    3.019274
H       0.270929    2.018364    1.105341
H      -1.393672    1.434791    0.889585
H      -0.469692    0.975695    2.336883
H      -0.572513   -0.907936    0.715580
H      -0.003983   -0.540224   -1.659510
H       0.596834    1.093707   -1.290360
H       2.107416   -1.531259   -0.886213
H       3.036933    1.375006   -0.528314
H       4.075166   -0.054696   -0.381780
H       3.351976    0.349659   -1.945513
H       3.002961   -1.441192    1.851971
