19

O       0.070158    0.004170    0.249331
C       0.011365    1.200556    0.085825
C      -1.273608    2.053838    0.035201
C      -0.810278    3.514529    0.261200
C       0.600937    3.544315   -0.368610
C       1.720785    4.459154    0.173939
C       2.995009    3.559497    0.144262
C       2.429249    2.156785    0.230704
C       1.127674    2.161886   -0.066224
H      -1.703965    1.935970   -0.969020
H      -2.017922    1.688846    0.746511
H      -1.498399    4.249137   -0.165201
H      -0.734209    3.716457    1.336347
H       0.497604    3.676142   -1.456969
H       1.844587    5.386429   -0.391137
H       1.499074    4.732314    1.212183
H       3.559261    3.690965   -0.791026
H       3.695538    3.783014    0.955991
H       3.006754    1.287724    0.524848
