16

C      -0.317131    1.473513    0.312932
N       0.021793    0.102360   -0.061978
C       0.503656   -0.392699   -1.323900
C       1.226710    0.514120   -2.322968
O       1.372576    1.869098   -1.902077
C       2.493057    0.984396   -1.735743
C       2.606437    0.350817   -0.351682
O       3.602516    0.354832    0.325243
C       1.353271   -0.473365   -0.073829
H      -1.147344    1.809497   -0.314189
H      -0.663636    1.450997    1.351125
H       0.494782    2.196600    0.218561
H      -0.016983   -1.255641   -1.732390
H       1.093402    0.358911   -3.389638
H       3.396147    1.245634   -2.279487
H       1.509990   -1.364520    0.529774
