18

C      -0.097034    1.624469    0.231994
C      -0.007765    0.116230    0.043467
C       0.622691   -0.494870   -1.259180
C       1.190409    0.460194   -2.320059
C       1.967668   -0.256764   -3.324262
C       2.605558   -0.885099   -4.126339
N       1.626409   -1.116030   -0.393613
C       1.141938   -0.612360    0.789347
O       1.496902   -0.716648    1.932673
H       0.858168    2.122033    0.041133
H      -0.852735    2.068296   -0.424095
H      -0.377315    1.844813    1.266006
H      -0.970757   -0.351153    0.270466
H      -0.026962   -1.227122   -1.751775
H       0.361477    0.994774   -2.801199
H       1.820541    1.215695   -1.838013
H       3.170621   -1.420809   -4.848426
H       2.386673   -1.746661   -0.602227
