21

C       0.134229    1.357266   -0.326973
C       0.049298   -0.087234    0.162700
O       0.590572   -0.252138    1.471644
C      -1.375794   -0.666206    0.098403
C      -2.344177   -0.015932    1.077701
O      -1.920952   -0.578599   -1.264742
C      -2.196157   -1.982550   -1.258167
C      -0.935813   -2.780500   -1.190686
C      -1.526340   -2.195839    0.076725
H       1.177709    1.683553   -0.348475
H      -0.286708    1.442129   -1.331963
H      -0.419889    2.039166    0.329270
H       0.684060   -0.705228   -0.479789
H       0.261491    0.467644    2.019915
H      -2.456157    1.052247    0.871590
H      -3.329314   -0.481287    0.992493
H      -1.993787   -0.146177    2.106569
H      -3.139614   -2.315363   -1.674945
H      -1.059590   -3.856030   -1.276264
H      -0.024033   -2.391040   -1.632995
H      -1.818279   -2.799993    0.924892
