17

C      -0.179842    1.547428    0.029565
C       0.151848    0.064769    0.033238
N       1.366159   -0.351047   -0.765421
C       1.806636   -1.218866    0.355898
C       2.234305   -2.563380    0.179983
N       2.578165   -3.659068    0.028273
C       2.219958   -0.270669    1.450626
O       2.815071    0.936219    1.133993
C       0.747899   -0.584270    1.290986
H       0.658632    2.140819    0.398432
H      -0.435731    1.882685   -0.980906
H      -1.044602    1.737705    0.674148
H      -0.718956   -0.519389   -0.286245
H       1.128019   -0.877915   -1.598195
H       2.671428   -0.737536    2.320749
H       2.709128    1.033383    0.173038
H       0.176235   -1.054933    2.080669
