18

C      -0.075711    1.516972   -0.079389
C      -0.020258    0.026232    0.006220
N      -0.040002   -0.744469   -1.084150
N       0.019932   -1.975123   -0.592102
N       0.071369   -2.083971    0.727708
C       0.047356   -0.814072    1.143477
C       0.125985   -0.455154    2.592898
C       1.575891   -0.275726    3.079413
O       1.646983    0.130644    4.433914
H       0.839706    1.979100    0.305881
H      -0.201581    1.825470   -1.119004
H      -0.911344    1.919637    0.503283
H       0.008183   -2.784680   -1.190291
H      -0.420095    0.474390    2.785554
H      -0.353082   -1.244772    3.183163
H       2.137436   -1.204536    2.899261
H       2.066865    0.516113    2.503770
H       1.308025   -0.588852    4.976155
