16

C       0.002376   -1.239911    0.046127
C      -0.025077   -0.039353    0.006743
C      -0.022166    1.416708   -0.038960
C       1.407293    1.990005   -0.019632
C       1.429677    3.544452   -0.012260
C       2.793438    4.060895    0.105415
C       3.921377    4.454901    0.216601
C       0.763869    4.089307   -1.208546
N       0.219464    4.492119   -2.144278
H       0.011322   -2.301268    0.077829
H      -0.545297    1.760261   -0.939815
H      -0.588744    1.811811    0.815137
H       1.934946    1.650308    0.875163
H       1.968888    1.629438   -0.885072
H       0.847898    3.888877    0.854873
H       4.916985    4.813704    0.310187
