17

N      -0.005711    1.298422    0.081546
C      -0.031442   -0.064097    0.032676
N      -1.092662   -0.793940    0.025678
C      -0.540056   -2.185768   -0.006677
C       0.718454   -2.067694    0.890543
C       1.240461   -0.921568   -0.013172
N       1.251765   -1.557818   -1.369144
C       0.203891   -2.306291   -1.343506
N      -0.215366   -3.119505   -2.354653
H       0.815166    1.754597   -0.282373
H      -0.878303    1.763944   -0.122192
H      -1.292670   -2.938844    0.224386
H       0.472733   -1.774443    1.914477
H       1.378330   -2.939044    0.879324
H       2.186535   -0.438536    0.228825
H       0.204567   -2.953180   -3.257776
H      -1.194349   -3.354985   -2.377340
