16

C       0.111829    1.322931    0.239851
C      -0.141060   -0.166791   -0.001436
O       0.005584   -0.938423    1.177088
C      -1.515671   -0.373989   -0.643970
O      -1.779218   -1.780791   -0.854612
C      -2.387642   -2.424963    0.137241
O      -2.781142   -1.969616    1.178716
C      -2.560807   -3.838085   -0.219397
N      -2.726170   -4.957510   -0.448980
H       1.092345    1.456090    0.702341
H       0.088848    1.892575   -0.695203
H      -0.643440    1.743520    0.913984
H       0.619474   -0.560242   -0.685890
H      -0.741740   -0.758567    1.760283
H      -2.310080    0.045102   -0.020146
H      -1.556159    0.073119   -1.638981
