18

O       0.006073    0.054262   -0.061657
C      -0.015729    1.252213    0.030694
C      -1.208338    2.197141    0.060982
C      -0.742181    3.254049    1.075229
N       0.749540    3.205673    1.033762
C       1.150077    2.234842    0.014071
C       1.130950    2.828182   -1.427888
O      -0.070591    3.547392   -1.647779
C      -1.240836    2.796543   -1.376529
H      -2.152371    1.703478    0.295038
H      -1.117440    4.250873    0.821604
H      -1.096401    3.007607    2.083187
H       1.125042    4.123600    0.829458
H       2.112226    1.761897    0.225884
H       1.944619    3.548930   -1.558869
H       1.260383    2.020848   -2.166810
H      -1.369750    1.984283   -2.109248
H      -2.078058    3.493144   -1.479527
