21

C      -0.663405    1.307235   -0.051188
C       0.080995   -0.020337   -0.027390
C       1.424070   -0.150968   -0.821562
C       2.117295   -0.728484    0.443090
C       2.899305   -2.010445    0.370038
O       2.796827    0.319795    1.182919
C       1.643762    0.558764    2.022223
C       0.812972   -0.496376    1.262201
O       0.235087   -1.528357    2.008315
H      -0.004954    2.144681    0.201246
H      -1.072766    1.503220   -1.048008
H      -1.502280    1.315444    0.655092
H      -0.596268   -0.829373   -0.322878
H       1.378010   -0.823914   -1.681372
H       1.867315    0.798172   -1.132109
H       3.822318   -1.856391   -0.200324
H       3.166537   -2.359029    1.371268
H       2.316062   -2.791897   -0.126528
H       1.831998    0.266650    3.062944
H       1.312940    1.603932    1.990882
H      -0.659919   -1.268243    2.252195
