18

C      -0.065460   -1.248169   -0.038611
C      -0.057605   -0.045792   -0.036439
C      -0.011834    1.411398   -0.035303
C       1.426331    1.978685    0.021501
C       1.465683    3.529988   -0.028930
C       2.615166    3.954730    0.920269
C       2.804998    2.732261    1.787612
C       2.169974    1.667838    1.301726
H      -0.086544   -2.309604   -0.041170
H      -0.511992    1.791625   -0.935605
H      -0.581254    1.797435    0.820434
H       1.973789    1.550609   -0.830645
H       1.585807    3.914330   -1.045137
H       0.516387    3.922542    0.353849
H       3.537427    4.183077    0.367390
H       2.374023    4.856393    1.494626
H       3.426686    2.737793    2.676501
H       2.186502    0.669977    1.725166
