19

C       0.019118    1.456793    0.051335
C       0.044135   -0.045400    0.003862
C       0.589332   -0.975316   -1.130668
C       0.060957   -1.945788   -0.038044
C       0.730159   -1.005663    1.013312
O       2.131137   -0.899283    1.059686
C      -1.196729   -1.018292    0.063778
C      -2.045778   -1.041614    1.237864
C      -2.780556   -1.047433    2.191141
H       1.038468    1.855405    0.078330
H      -0.486158    1.873473   -0.826408
H      -0.507927    1.807829    0.944996
H       0.039908   -0.958552   -2.076245
H       1.667053   -0.962295   -1.281955
H       0.050740   -3.036058   -0.056068
H       0.294784   -1.030279    2.018144
H       2.464848   -1.575158    1.656876
H      -1.799608   -1.003610   -0.849189
H      -3.425564   -1.057079    3.034484
