19

C       0.054974    1.581629    0.009157
C       0.021982    0.040456    0.061545
C       0.831079   -0.492917    1.261509
O      -1.327876   -0.460100    0.068864
C      -2.142524   -0.098712    1.172633
C      -3.460024   -0.697651    0.997750
C      -4.554536   -1.177425    0.881921
C       0.598945   -0.493181   -1.179966
C       1.109643   -0.908437   -2.184331
H       1.077570    1.925455   -0.164815
H      -0.576512    1.941361   -0.806477
H      -0.290214    2.019982    0.950053
H       0.485765   -0.053790    2.201997
H       0.740801   -1.580088    1.319423
H       1.886658   -0.237330    1.140626
H      -1.712581   -0.448386    2.123179
H      -2.252373    0.993155    1.252804
H      -5.519960   -1.605616    0.771441
H       1.547810   -1.283005   -3.076350
