21

C      -0.082704    1.548930   -0.072066
C       0.105506    0.049776   -0.009985
C       0.133686   -0.642335   -1.364109
C       0.393445   -2.140348   -1.219537
O       1.572189   -2.361376   -0.463904
C       1.428058   -1.989056    0.890423
C       0.760959   -0.633366    1.129117
C       1.277435    0.087296    2.355028
O      -0.675348   -0.645577    0.979822
H       0.744946    2.018340   -0.614693
H      -1.008216    1.785229   -0.608943
H      -0.146723    1.997204    0.919902
H      -0.819481   -0.469649   -1.880543
H       0.923868   -0.191664   -1.976600
H      -0.469900   -2.628954   -0.744634
H       0.560855   -2.603558   -2.195719
H       0.845413   -2.745699    1.444167
H       2.441102   -1.977826    1.304988
H       2.306318    0.430567    2.202887
H       0.652758    0.943408    2.611452
H       1.277621   -0.592419    3.215383
