19

C       0.025428    1.453470    0.181904
O       1.411432    1.593543   -0.260386
C       1.351885    0.274786   -0.771366
C       2.435813   -0.763384   -1.010787
C       1.456614   -1.426246   -2.039839
C       0.194246   -2.122503   -1.448448
C      -0.521092   -0.750088   -1.263476
C       0.063050   -0.087214   -0.005240
C       0.630430   -0.096577   -2.119230
H      -0.100915    1.812587    1.206946
H      -0.662876    1.990301   -0.482818
H       3.294529   -0.343394   -1.546189
H       2.792246   -1.344545   -0.154528
H       1.916815   -1.902288   -2.904405
H      -0.299128   -2.715679   -2.223718
H       0.318245   -2.749115   -0.558133
H      -1.589899   -0.691560   -1.476074
H       0.080233   -0.652874    0.929755
H       0.541168    0.548999   -2.988871
