21

C       0.096877    1.646334   -0.058823
C       0.042035    0.117709    0.043822
C       0.672694   -0.608554   -1.160726
C       2.141286   -0.800986   -0.746728
C       2.042598   -1.110729    0.754298
N       0.838392   -0.397564    1.171155
C       0.388461   -0.270901    2.456842
N       1.206055   -0.842457    3.430175
O      -0.630111    0.339344    2.746997
H       1.117008    1.999341   -0.245175
H      -0.540838    1.992711   -0.879186
H      -0.262729    2.088137    0.872097
H      -1.000866   -0.178232    0.191463
H       0.194285   -1.583701   -1.303648
H       0.560377   -0.043071   -2.088702
H       2.648507   -1.593049   -1.302174
H       2.704939    0.124710   -0.898621
H       1.943316   -2.196432    0.919530
H       2.921319   -0.769807    1.312766
H       1.729865   -1.670518    3.191144
H       0.736286   -0.897193    4.321384
