19

C       0.177827    1.334924   -0.083929
N       0.053000   -0.100733    0.032722
N       0.040711   -0.863574   -1.084662
C      -0.066007   -2.114196   -0.643686
C      -0.148958   -3.254718   -1.607124
O       0.648465   -4.324717   -1.109940
C      -0.113511   -2.160202    0.765827
C      -0.031188   -0.843069    1.172453
C      -0.018602   -0.231290    2.534730
H       1.108549    1.692730    0.370052
H       0.183870    1.573079   -1.146809
H      -0.664068    1.845182    0.395733
H      -1.197793   -3.577476   -1.716038
H       0.190726   -2.906871   -2.593133
H       0.491081   -5.090537   -1.670115
H      -0.181909   -3.032663    1.394745
H       0.905714    0.326837    2.726465
H      -0.853696    0.464233    2.681367
H      -0.098833   -1.012610    3.293056
