18

C      -0.077312    1.488955    0.025034
C       0.021819   -0.007215    0.056408
C       1.330389   -0.733987   -0.229174
C       0.680195   -0.800472    1.144203
O       1.269658   -0.147112    2.225828
C      -0.247763   -1.975861    1.416980
C      -1.160278   -1.981685    0.174568
O      -1.167401   -0.649173   -0.342675
H       0.804957    1.931394    0.493284
H      -0.155142    1.858486   -1.002298
H      -0.963554    1.818452    0.575817
H       1.340861   -1.610270   -0.869253
H       2.211338   -0.104765   -0.302891
H       2.072434   -0.624037    2.462661
H       0.264260   -2.934117    1.552291
H      -0.808915   -1.754266    2.330717
H      -0.779399   -2.677888   -0.586014
H      -2.193730   -2.261056    0.396018
