15

C       0.111012    1.457105    0.023887
C      -0.077862   -0.014229   -0.007217
C      -1.165521   -0.815711   -0.164519
C      -0.688495   -2.177594   -0.098605
C       0.668224   -2.040952    0.095792
N       1.243621   -3.253852    0.171765
N       0.287686   -4.225991    0.032188
C      -0.868107   -3.583427   -0.130542
O       1.096130   -0.771374    0.159197
H       0.786894    1.795080   -0.770289
H      -0.852856    1.952041   -0.113816
H       0.534591    1.790414    0.978484
H      -2.174173   -0.460480   -0.307958
H       2.202566   -3.516688    0.312545
H      -1.770156   -4.162286   -0.261690
