19

O      -0.860755    0.915395   -0.621928
C       0.263640    0.630875   -0.307753
C       1.354490    1.649169    0.029571
O       2.572538    0.965568   -0.165470
C       3.719015    1.560688    0.417776
C       4.293211    2.702505   -0.418344
C       3.471986    3.999572   -0.406543
C       2.050193    3.916972   -0.906517
C       1.159091    2.944758   -0.719980
H       0.612929   -0.419107   -0.210319
H       1.219270    1.848018    1.115088
H       3.488032    1.904096    1.440737
H       4.456082    0.754976    0.497705
H       5.300738    2.924409   -0.044153
H       4.405163    2.342518   -1.447411
H       3.456258    4.400498    0.619662
H       4.006206    4.751435   -0.997965
H       1.707828    4.792868   -1.454586
H       0.149219    3.066681   -1.102762
