17

C       0.078007    1.411381    0.118247
C       0.026226   -0.081385   -0.012446
N       0.061156   -0.874647    1.042531
N      -0.057150   -0.632433   -1.218688
H      -0.082801   -0.018486   -2.016748
C      -0.112239   -2.019297   -1.471447
C      -0.199713   -2.687561   -2.689510
C      -0.216254   -4.025219   -2.273996
N      -0.145182   -4.136383   -0.935045
N      -0.080481   -2.888266   -0.436203
H       1.001270    1.716002    0.621304
H       0.038113    1.904204   -0.854971
H      -0.763642    1.768514    0.720202
H       0.124071   -0.471173    1.962283
H       0.015792   -1.939389    0.792680
H      -0.242991   -2.279290   -3.687341
H      -0.276764   -4.912369   -2.889684
