19

C       0.175354    1.609353    0.333397
C       1.358425    0.775637   -0.075442
C       2.272771    0.256801    1.030134
C       1.367372   -0.497279    2.011332
O       0.971891    0.319452    3.114816
C      -0.299571   -0.162351    3.468649
O      -0.980741   -0.456858    2.268006
C       0.014259   -0.774843    1.290030
C      -0.009528    0.134680    0.073582
H       0.116150    1.959339    1.357462
H      -0.234343    2.292077   -0.402904
H       1.789598    0.937373   -1.057400
H       3.010199   -0.435326    0.609495
H       2.824514    1.046738    1.549542
H       1.832895   -1.417825    2.389693
H      -0.210011   -1.071614    4.092587
H      -0.837875    0.617208    4.015730
H      -0.092859   -1.825541    0.996338
H      -0.586232   -0.176217   -0.789587
