27

C       0.012542    1.598073    0.121806
C       0.014334    0.069120    0.039685
C       0.694392   -0.463993   -1.225481
C       0.697814   -1.992879   -1.318646
C       1.435933   -2.532880   -2.550234
O       2.791006   -2.077917   -2.586575
C       1.356975   -4.060882   -2.656662
C       2.016281   -4.624510   -3.919629
C       1.984717   -6.153486   -3.983569
H       1.033720    1.995183    0.115940
H      -0.516166    2.039371   -0.730492
H      -0.476781    1.950311    1.035432
H       0.518533   -0.344141    0.923788
H      -1.018857   -0.301348    0.082572
H       0.190370   -0.050363   -2.110362
H       1.728717   -0.104188   -1.273352
H       1.163376   -2.418456   -0.415848
H      -0.333875   -2.369042   -1.331142
H       0.986308   -2.093429   -3.451350
H       3.235681   -2.437692   -1.810190
H       1.829908   -4.500378   -1.764322
H       0.302358   -4.365220   -2.618811
H       1.511451   -4.209419   -4.802130
H       3.049849   -4.265583   -3.967006
H       2.511817   -6.597670   -3.131387
H       0.956562   -6.532733   -3.966730
H       2.460294   -6.524301   -4.897031
