20

O      -0.171780    1.521630    0.089952
C       0.088524    0.116021    0.119268
C      -1.261060   -0.553114   -0.017329
C      -1.835201   -1.174675   -1.266264
C      -0.927328   -1.693455   -2.391768
C      -0.178783   -2.902600   -1.828167
N       0.784708   -2.590843   -0.751228
C      -0.568392   -3.085116   -0.404730
C      -1.586110   -2.033568   -0.028904
H       0.676350    1.973914    0.113612
H       0.774066   -0.183643   -0.676642
H       0.555778   -0.176029    1.072789
H      -1.999941    0.020673    0.539632
H      -2.841238   -0.882707   -1.549330
H      -1.549860   -2.017547   -3.232355
H      -0.239016   -0.932872   -2.776610
H       0.041578   -3.740365   -2.483072
H       1.452387   -3.354396   -0.670571
H      -0.656753   -4.067912    0.045948
H      -2.405984   -2.368137    0.597555
