16

O      -0.117876    1.405026   -0.011322
N       0.078978   -0.001148   -0.005443
C      -1.027136   -0.607314    0.009206
C      -2.520428   -0.398189    0.027093
C      -2.708566   -1.660621   -0.905444
C      -3.726487   -2.283348    0.051980
O      -3.796518   -3.684483   -0.021433
C      -2.680360   -1.642871    0.988555
C      -1.486712   -2.036305    0.026949
H       0.788999    1.727700   -0.026069
H      -3.113986    0.511449    0.025784
H      -2.693334   -1.650140   -1.994889
H      -4.724476   -1.822151    0.062238
H      -4.389677   -3.998901    0.667816
H      -2.628726   -1.605660    2.077220
H      -0.923150   -2.963826    0.025821
