14

O       0.406040   -0.106913    0.104745
C       0.179975    1.072055    0.116251
C       1.273625    2.143625    0.129149
O       2.561673    1.629212    0.321799
C       3.139208    1.359599   -0.965661
C       2.633887    2.481813   -1.877191
C       1.290318    2.847938   -1.249086
O       0.407188    3.518915   -1.706830
H      -0.851131    1.486849    0.092472
H       1.033393    2.873169    0.912822
H       4.222532    1.348399   -0.836788
H       2.813244    0.375234   -1.323287
H       3.280593    3.365275   -1.826453
H       2.512319    2.210426   -2.927611
