19

C       0.227097    0.861764    0.494071
O      -0.426243   -0.113569   -0.304981
C       0.369634   -0.578838   -1.337893
C       1.470553   -1.603952   -1.067331
O       1.446698   -2.243792    0.180978
C       0.170830   -2.856569    0.332800
O      -0.451511   -2.901251   -0.937104
C       0.223397   -2.018209   -1.800431
C       0.096603   -2.403304   -3.245425
H       1.129431    0.450592    0.963179
H       0.503963    1.744794   -0.100336
H      -0.481515    1.164724    1.268115
H       0.586466    0.149343   -2.125175
H       2.465773   -1.534685   -1.491546
H       0.304476   -3.880128    0.705378
H      -0.440241   -2.267578    1.027189
H      -0.951252   -2.372350   -3.561132
H       0.662850   -1.715093   -3.878596
H       0.475175   -3.417369   -3.406397
