18

N       0.014542    1.241927    0.118844
C      -0.189469    0.015702    0.333529
O      -0.648100   -0.770879   -0.663253
C      -0.860845   -2.158191   -0.340005
C      -1.979428   -2.319307    0.593631
C      -2.898060   -2.447934    1.357255
C      -1.094814   -2.885788   -1.643033
C       0.084875   -3.293070   -2.483530
C      -0.717816   -4.339994   -1.753950
H       0.367490    1.686901    0.963667
H      -0.028365   -0.517226    1.279759
H       0.053146   -2.555993    0.126632
H      -3.711430   -2.561502    2.031129
H      -1.991056   -2.561924   -2.161036
H      -0.013053   -3.218693   -3.560202
H       1.076757   -3.059044   -2.111570
H      -0.267234   -4.816995   -0.889652
H      -1.371051   -4.989381   -2.324936
