17

O       0.184149    1.368766   -0.146232
C       0.053920   -0.026540    0.085494
C      -1.368628   -0.484646    0.064943
C      -2.046380   -1.801557   -0.041176
O      -2.915700   -1.611359    1.043030
C      -2.537163   -0.160801    1.052705
C      -3.600445    0.523550    0.240201
C      -3.450378    0.134959   -1.036124
C      -2.238388   -0.705569   -1.163760
H      -0.306603    1.573975   -0.949305
H       0.630229   -0.617471   -0.645977
H       0.503486   -0.205355    1.068647
H      -1.718374   -2.809518   -0.266150
H      -2.329534    0.172999    2.067728
H      -4.436879    1.062485    0.664250
H      -4.144914    0.313970   -1.847789
H      -1.770825   -0.925232   -2.117279
