14

C      -0.027864    1.450492    0.035643
N      -0.008534   -0.005478    0.016606
C      -0.029431   -0.778755   -1.106744
C       0.001499   -2.088808   -0.670763
N       0.040183   -2.137077    0.683376
C       0.033785   -0.873400    1.090610
C       0.066845   -0.411310    2.479064
O       0.104130   -1.132445    3.447524
H       0.873721    1.848518    0.508248
H      -0.069049    1.811221   -0.992834
H      -0.904856    1.823662    0.570508
H      -0.063540   -0.340850   -2.091544
H      -0.002804   -2.984832   -1.273222
H       0.054801    0.696402    2.591672
