21

C      -0.072084    1.544558   -0.023196
C       0.034931    0.011800    0.049190
C       0.709095   -0.521700   -1.222619
O       0.972142   -1.906915   -1.148112
C       1.919447   -2.213237   -0.142223
C       1.664613   -1.497057    1.152325
C       0.793681   -0.494522    1.263876
C       0.492209    0.155768    2.589008
O       1.136560   -0.540825    3.639512
H       0.918649    2.012535   -0.013173
H      -0.575706    1.847870   -0.947453
H      -0.647746    1.956292    0.810419
H      -0.987493   -0.394086    0.086813
H       0.060559   -0.376495   -2.092304
H       1.642914    0.040429   -1.400902
H       1.863519   -3.298356    0.006715
H       2.944189   -1.996747   -0.500123
H       2.209390   -1.842304    2.024492
H       0.812127    1.210814    2.565092
H      -0.603570    0.171115    2.735142
H       1.020597   -0.033354    4.447167
