21

C      -0.062453    1.579052   -0.248171
C      -0.044759    0.067364   -0.090538
C       1.226318   -0.660182   -0.455088
C       0.831922   -0.516550    0.995475
C      -1.354495   -0.675820   -0.387501
C      -2.533391   -0.183983    0.446359
O      -3.620011   -1.056384    0.171477
C      -1.681021   -0.590119   -1.873611
O      -1.276717   -1.367015   -2.698568
H       0.929182    1.994214   -0.044822
H      -0.339133    1.879410   -1.265169
H      -0.764199    2.057039    0.444238
H       1.134570   -1.633692   -0.922686
H       2.060841   -0.070186   -0.818637
H       1.397621    0.172100    1.614481
H       0.482867   -1.399114    1.521109
H      -1.201764   -1.738201   -0.170017
H      -2.262576   -0.189890    1.512836
H      -2.783639    0.853648    0.174204
H      -4.404007   -0.719154    0.614744
H      -2.312186    0.281141   -2.169076
