23

C       0.212767    1.547277    0.180341
C       0.028891    0.039546    0.038289
C      -1.438808   -0.307353   -0.224614
C       0.991040   -0.677465   -0.964604
C       1.246014   -1.783005    0.095542
C       2.679825   -2.286743    0.281624
C       2.772710   -3.305456    1.393998
O       3.453960   -3.196954    2.380873
C       0.645779   -0.838870    1.174883
H       1.259443    1.804254    0.374433
H      -0.097494    2.070935   -0.731742
H      -0.387433    1.942250    1.008616
H      -1.796392    0.172173   -1.143071
H      -1.588651   -1.386854   -0.333512
H      -2.074516    0.033650    0.600493
H       0.571755   -0.989040   -1.925737
H       1.892697   -0.085970   -1.153939
H       0.584018   -2.638898   -0.077378
H       3.011830   -2.775024   -0.646864
H       3.366223   -1.462759    0.500848
H       2.126473   -4.203631    1.242666
H       1.429095   -0.305637    1.723334
H      -0.046618   -1.275038    1.900573
