17

C       0.060803    1.506212    0.170965
C       0.006189   -0.000785    0.047562
O       1.030990   -0.556223   -0.856578
C       1.294480   -1.660495    0.074322
C       2.675177   -1.956303    0.652795
C       2.470143   -1.692343    2.178942
O       3.228456   -2.023007    3.054191
C       1.237616   -0.844532    2.309775
C       0.614790   -0.856865    1.130795
H       1.048753    1.829367    0.507381
H      -0.150108    1.968254   -0.797875
H      -0.691485    1.853611    0.886480
H      -0.988412   -0.336314   -0.277918
H       0.774061   -2.561875   -0.271645
H       3.071134   -2.955111    0.461212
H       3.400387   -1.219248    0.290763
H       1.041187   -0.242858    3.187225
