17

O      -0.107631    0.303584    0.910685
C      -0.112605    1.374148    0.348173
C      -1.272063    2.014431   -0.428177
C      -0.844805    3.478755   -0.638855
C      -1.408113    4.376344    0.487899
C      -1.012794    5.775773    0.345007
N      -0.682006    6.874870    0.209852
C       0.703156    3.402106   -0.590633
N       0.933893    2.257365    0.272153
H      -1.373133    1.483964   -1.381078
H      -2.212458    1.891703    0.113441
H      -1.178924    3.876460   -1.599019
H      -2.502087    4.320963    0.495308
H      -1.064272    4.012330    1.463454
H       1.116830    3.248809   -1.597019
H       1.151150    4.313508   -0.183050
H       1.848463    1.985115    0.596578
