17

C      -0.144990    1.580572    0.020396
C       0.059325    0.075400   -0.011406
C       0.842048   -0.601532   -1.198610
N       2.105423    0.105061   -1.449475
C       2.769454    0.461219   -0.293827
N       2.409345    0.107781    0.881452
C       1.114979   -0.614859    0.933475
C       1.159072   -1.696206   -0.147700
O       1.240515   -2.888115   -0.181061
H       0.795086    2.128115   -0.075472
H      -0.808608    1.896586   -0.791752
H      -0.606559    1.883651    0.965326
H      -0.896966   -0.444272    0.105754
H       0.344894   -0.866460   -2.130646
H       2.151350    0.738996   -2.235222
H       3.672292    1.055417   -0.431381
H       0.854645   -0.860798    1.961844
