15

N       0.008981    1.433834   -0.057688
C      -0.012104    0.028029   -0.041915
C      -1.224927   -0.673231   -0.022554
C      -1.254273   -2.060635   -0.072674
C      -0.066436   -2.787411   -0.144197
O      -0.153825   -4.154000   -0.189835
C       1.146677   -2.102234   -0.163479
C       1.172560   -0.711303   -0.112463
H       0.857388    1.830574    0.322552
H      -0.797483    1.855227    0.382596
H      -2.159137   -0.121371    0.029395
H      -2.196309   -2.597007   -0.055231
H       0.734823   -4.519346   -0.241321
H       2.081550   -2.654800   -0.216066
H       2.127298   -0.193778   -0.131968
