17

C       0.011301   -1.218455    0.012757
C      -0.016132   -0.014379    0.033673
C      -0.049990    1.406795    0.060805
C      -0.694522    2.351289    1.132245
C      -0.934783    3.335298    0.012434
C       0.383615    3.351842    0.790938
C       1.217645    2.365642   -0.056518
C       0.880620    2.634049   -1.541273
C      -0.577073    2.343118   -1.116283
H       0.036245   -2.279504   -0.007006
H      -1.232907    2.150531    2.048268
H      -1.611843    4.177865   -0.016530
H       0.720151    4.207129    1.360496
H       2.206986    2.071714    0.289061
H       1.113959    3.618581   -1.957359
H       1.274228    1.846675   -2.191115
H      -1.351789    2.027050   -1.812365
