17

C      -0.025166    1.579413    0.177165
C      -0.038302    0.048403    0.018702
C       0.847036   -0.627733    1.080773
C      -1.439846   -0.492954    0.048863
N      -1.975807   -1.125785   -0.999426
N      -3.197061   -1.439565   -0.582782
N      -3.517994   -1.071480    0.648480
C      -2.410020   -0.463824    1.073136
H       0.997211    1.964377    0.105377
H      -0.628089    2.062961   -0.596777
H      -0.426352    1.878927    1.151759
H       0.363012   -0.197764   -0.970575
H       0.481208   -0.417452    2.091911
H       0.864230   -1.713433    0.949350
H       1.875541   -0.258363    1.015298
H      -3.846198   -1.933310   -1.173261
H      -2.359655   -0.045131    2.065622
