19

C      -0.021217    1.480376    0.015176
C       0.007418   -0.015310    0.001883
C       0.066423   -0.815434   -1.070651
C       0.021051   -2.291553   -0.709975
C       1.163411   -3.076029   -1.335750
O       1.032224   -3.902395   -2.201694
C       0.074863   -2.268168    0.822964
C       1.253514   -1.622042    1.512601
C      -0.005383   -0.816541    1.264579
H       0.835660    1.886686    0.566848
H      -0.007355    1.894165   -0.996257
H      -0.921242    1.850201    0.522202
H       0.140995   -0.478392   -2.098570
H      -0.903949   -2.757996   -1.070853
H       2.168929   -2.821267   -0.931946
H      -0.451927   -3.045695    1.362272
H       1.451415   -1.949679    2.527921
H       2.137727   -1.355610    0.944421
H      -0.604408   -0.493667    2.109475
