17

O       0.005557    1.416425    0.396553
C       0.051213    0.061253   -0.023908
C      -1.347837   -0.508090    0.155403
C      -1.465343   -1.962649   -0.243102
O      -0.507282   -2.627857   -0.588611
C      -2.834631   -2.567523   -0.194907
C      -3.251434   -3.351059   -1.404444
N      -2.922377   -4.034704   -0.163086
H       0.887427    1.787760    0.302475
H       0.354282   -0.029278   -1.077083
H       0.766113   -0.527536    0.567451
H      -1.660858   -0.408146    1.203897
H      -2.075652    0.080403   -0.419146
H      -3.590351   -2.036292    0.376082
H      -4.301218   -3.360823   -1.683054
H      -2.542312   -3.393005   -2.226503
H      -1.964185   -4.381486   -0.231702
