14

C      -0.151005    1.512429   -0.080660
C      -0.034202    0.000144    0.029265
O      -1.270696   -0.643923    0.165979
C       0.863752   -0.701275   -1.039112
O       1.824675   -1.073755    0.000170
C       1.059631   -0.509012    0.997304
O       1.272890   -0.492094    2.162945
C       0.306437   -1.860201   -1.721861
N      -0.122412   -2.762263   -2.300908
H       0.821900    1.982092   -0.253866
H      -0.826677    1.771466   -0.900378
H      -0.557879    1.919389    0.850420
H      -1.650743   -0.398918    1.017800
H       1.331175   -0.026710   -1.759920
