18

N      -0.068084    1.332553    0.139031
C      -0.019720    0.070943    0.121059
O      -1.116942   -0.645227   -0.183210
C      -1.027218   -2.058405   -0.062804
C      -1.691251   -2.706927    1.161562
C      -3.132633   -2.502065    0.567913
C      -3.495689   -3.987239    0.760131
C      -2.012439   -4.005323    0.340676
C      -2.209201   -2.815405   -0.664975
H       0.850485    1.709215    0.363770
H       0.865260   -0.549276    0.324342
H      -0.019556   -2.402408   -0.329713
H      -1.407534   -2.657898    2.213326
H      -3.752142   -1.615500    0.689734
H      -3.722004   -4.312203    1.780508
H      -4.212225   -4.415878    0.052420
H      -1.341204   -4.853502    0.199711
H      -2.517325   -2.888405   -1.707841
