18

C      -0.082670    1.536890    0.026544
C       0.110188    0.052868   -0.002963
N      -0.760892   -0.871238    0.760505
C       0.701141   -0.906949    0.983987
C       1.312226   -1.768584   -0.142223
O       2.661457   -2.023602    0.069134
C       0.394734   -2.811561   -0.834691
O      -0.110213   -1.807458   -1.752276
C       0.712726   -0.780555   -1.177923
H       0.792187    2.057061   -0.377832
H      -0.953670    1.833200   -0.569737
H      -0.238431    1.893572    1.051008
H      -1.168400   -0.329068    1.522443
H       1.138567   -0.746702    1.962302
H       3.033530   -2.395533   -0.738026
H       0.954146   -3.593631   -1.368005
H      -0.398933   -3.256274   -0.229753
H       1.300467   -0.214219   -1.906599
