17

C       0.215329    1.493707   -0.389386
C       0.100755    0.007352   -0.125689
C       1.379070   -0.821938    0.037887
C       0.539726   -0.542041    1.235912
O       0.942799    0.397368    2.182233
C      -1.043021   -0.753144   -0.718024
O      -1.156395   -1.960314   -0.599527
C      -2.045676    0.010771   -1.442608
C      -2.887067    0.619755   -2.051353
H       1.012627    1.920525    0.220825
H       0.433393    1.694008   -1.443062
H      -0.712808    2.013105   -0.134476
H       1.360967   -1.825554   -0.371228
H       2.308471   -0.271877   -0.065355
H      -0.070352   -1.360075    1.615067
H       1.740955    0.067728    2.607970
H      -3.635969    1.148450   -2.589462
