21

O      -0.912708    1.036207    0.100623
C       0.261157    0.915092   -0.176127
C       1.330592    1.909444    0.024121
C       1.140325    3.418775   -0.254545
C      -0.213455    4.011251   -0.637088
C      -0.884744    4.691955    0.566355
C      -1.062649    3.693630    1.715203
C       0.290238    3.143308    2.215148
C       1.363435    2.956508    1.147062
H       0.622145   -0.028831   -0.645217
H       2.306868    1.524755   -0.255498
H       1.993740    3.853863   -0.765311
H      -0.063326    4.730192   -1.448410
H      -0.883172    3.235958   -1.021054
H      -0.273544    5.543911    0.896217
H      -1.856751    5.098299    0.266243
H      -1.579536    4.167577    2.556824
H      -1.687569    2.868674    1.368128
H       0.710069    3.860284    2.932339
H       0.136300    2.213411    2.773451
H       2.371987    3.080618    1.531897
