18

C       0.002990    1.490401    0.111946
C       0.012347    0.004669   -0.032266
C       0.005943   -0.793989   -1.159281
C       0.020162   -2.154136   -0.752020
C       0.019616   -3.366756   -1.629569
C       0.035205   -2.153435    0.637738
N       0.030176   -0.829509    1.050655
C       0.052842   -3.218612    1.556236
C       0.067938   -4.126293    2.351507
H       0.889053    1.858427    0.644030
H      -0.009760    1.959849   -0.874029
H      -0.878026    1.845727    0.660800
H      -0.007579   -0.431883   -2.177047
H       0.894363   -3.386723   -2.290107
H       0.031687   -4.280413   -1.029694
H      -0.867672   -3.398498   -2.272677
H       0.037680   -0.541960    2.014169
H       0.081227   -4.930399    3.044166
