22

C      -0.123306    1.485223    0.025191
C       0.045905   -0.040042    0.031422
C       0.726081   -0.536232   -1.212320
C      -0.013927   -0.953007   -2.470365
C      -0.023521   -0.450868   -3.914624
C       0.917918   -1.928735   -1.791535
C       2.409639   -1.576236   -1.910813
C       2.751365   -0.333827   -2.638359
N       2.219492   -0.228773   -1.266452
H       0.848174    1.973993   -0.095362
H      -0.768992    1.807750   -0.798495
H      -0.566889    1.837637    0.961354
H       0.644512   -0.336843    0.901174
H      -0.929271   -0.531576    0.130800
H      -1.027231   -1.188013   -2.143606
H       0.727458   -0.944665   -4.535642
H      -0.998476   -0.662978   -4.364496
H       0.131669    0.630879   -3.983204
H       0.588142   -2.884050   -1.401114
H       3.178268   -2.248591   -1.542141
H       3.808575   -0.079561   -2.669434
H       2.188368    0.030501   -3.482720
