18

C       0.176529    1.514153    0.051360
N       1.280546    0.561750   -0.074899
C      -0.102025    0.044033    0.057269
C      -0.421260   -0.689036    1.284293
C      -1.316144   -1.645901    1.556530
C      -1.055193   -1.890719    3.053524
C      -0.993219   -0.435621    3.609212
C       0.247074   -0.508841    2.668673
O       0.412595   -1.899455    3.098202
H       0.156121    2.069753    0.985120
H      -0.142643    2.082070   -0.818985
H       1.583499    0.493867   -1.042585
H      -0.576584   -0.344660   -0.841422
H      -2.040102   -2.138012    0.923760
H      -1.532891   -2.724264    3.566517
H      -1.803366    0.255757    3.366315
H      -0.717148   -0.396702    4.665649
H       1.138162    0.108853    2.757826
