23

C       0.190321    1.608278    0.503621
C       0.325381    0.109180    0.254911
C       1.038073   -0.469473   -1.040120
C       1.630368    0.439092   -2.113010
C       1.946233   -1.356773   -0.122585
C       3.314977   -0.891930    0.427885
C       3.392701    0.567589    0.765251
C       2.621474   -0.328877    1.688068
C       1.249130   -0.790779    1.144125
H       1.139866    2.145842    0.488798
H      -0.462061    2.067496   -0.247850
H      -0.265658    1.787302    1.484066
H      -0.686770   -0.308404    0.296098
H       0.327445   -1.131859   -1.546848
H       2.362501    1.153137   -1.732286
H       2.134699   -0.161883   -2.878332
H       0.840873    1.009984   -2.614979
H       1.920152   -2.428041   -0.327709
H       4.217230   -1.489392    0.363400
H       4.357874    0.874079    1.159460
H       2.920356    1.331099    0.164184
H       2.917192   -0.433924    2.725707
H       0.732635   -1.463883    1.830080
