17

O       0.004365   -0.111890    0.042632
C      -0.012590    1.108230    0.028422
N      -1.216055    1.790391    0.007367
C      -1.484328    3.208363    0.207878
C      -0.797582    4.050390   -0.852167
O      -0.074708    5.201757   -0.407740
C       0.667498    4.070555   -0.871622
C       1.405001    3.248060    0.169486
N       1.170674    1.823202   -0.024627
H      -1.984195    1.149142    0.120753
H      -2.567999    3.338808    0.149167
H      -1.177109    3.565644    1.198487
H      -1.333917    4.182756   -1.790517
H       1.174892    4.217256   -1.823836
H       2.482734    3.408323    0.082248
H       1.114318    3.596931    1.168050
H       1.958924    1.203368    0.067905
