19

O      -0.135386    1.315328    0.429835
C      -0.036302   -0.056750    0.217505
C      -0.853243   -1.011383    1.066333
C      -1.206462   -0.768416   -0.390147
O      -2.271026    0.081909   -0.708789
C      -3.549209   -0.500269   -0.617092
C      -4.327085   -0.395111    0.716674
O      -5.441291    0.224635    0.041133
C      -4.675384    0.383919   -1.171304
H      -0.985364    1.589106    0.061048
H       0.964501   -0.357450   -0.078240
H      -0.433980   -1.973825    1.340010
H      -1.487443   -0.550899    1.815324
H      -1.046677   -1.568193   -1.112507
H      -3.535202   -1.514466   -1.032302
H      -4.613033   -1.326329    1.217047
H      -3.851401    0.283003    1.437528
H      -4.351743    1.421206   -1.330145
H      -5.214633    0.027015   -2.054750
