11

F       0.009456    0.127770   -0.411934
C      -0.027560    1.388492   -0.055888
N      -1.168291    1.903821    0.160569
O      -1.195844    3.245536    0.539547
C      -0.058063    4.013972    0.684422
N      -0.099092    5.223699    1.027616
N       1.145257    3.374040    0.428864
C       1.299036    2.063419    0.050031
O       2.355031    1.525143   -0.166241
H      -1.055037    5.538333    1.176112
H       1.977505    3.939896    0.536225
