20

C       0.098936    1.315473   -0.429772
C       0.033384   -0.115783    0.138605
C       0.662656   -0.170521    1.536601
C      -1.377591   -0.648211    0.116830
C      -2.174048   -0.954322    1.192397
N      -3.397750   -1.393459    0.710599
C      -3.375129   -1.369178   -0.651007
O      -4.494326   -1.776171   -1.305132
C      -2.148710   -0.914798   -1.067370
H       1.134108    1.671758   -0.477047
H      -0.323015    1.363672   -1.437908
H      -0.471474    2.005666    0.201546
H       0.639581   -0.753128   -0.521979
H       0.653088   -1.187977    1.939196
H       1.700973    0.174672    1.507469
H       0.120391    0.475563    2.236687
H      -1.988962   -0.906751    2.251890
H      -4.183257   -1.698414    1.257552
H      -4.333186   -1.699277   -2.250004
H      -1.828428   -0.790350   -2.091043
