16

C      -0.128722    1.555379   -0.062503
C      -0.085921    0.069970    0.003818
C       0.054973   -1.005675   -1.079983
C       1.271119   -1.474205   -0.383417
O       2.250552   -2.110876   -0.611697
N       0.872521   -0.765938    0.874696
C      -0.322084   -1.618403    1.291542
C      -1.043675   -1.046248    0.075374
O      -2.380428   -0.992496   -0.212539
H       0.835554    1.958257   -0.386786
H      -0.896049    1.878914   -0.771724
H      -0.366394    1.981443    0.917146
H      -0.242811   -0.983256   -2.120413
H      -0.106838   -2.690694    1.349198
H      -0.736574   -1.259952    2.237439
H      -2.674259   -1.861962   -0.508728
