18

C       0.163991    1.500835    0.132833
C       0.033597    0.044874   -0.321613
C      -1.311403   -0.571327    0.040545
C      -1.400077   -2.041490    0.399262
N      -1.443490   -1.034466    1.428857
C      -2.552547   -0.826818    2.241967
O      -3.202834   -1.706562    2.746053
C      -2.468198    0.028575   -0.583479
C      -3.410734    0.555792   -1.112216
H       1.143380    1.904599   -0.138448
H      -0.602669    2.128230   -0.331234
H       0.055625    1.577568    1.219338
H       0.163997   -0.028375   -1.407410
H       0.815558   -0.565096    0.142408
H      -2.326403   -2.565657    0.182733
H      -0.495016   -2.641121    0.351025
H      -2.724277    0.248411    2.431699
H      -4.252103    1.007797   -1.577421
