20

C      -0.506469    1.340853   -0.007203
C       0.208938    0.009302    0.003667
O       1.506651    0.055055   -0.643778
C       2.088004   -0.781076    0.371315
C       0.856816   -0.569088    1.288292
C       1.065314    0.395217    2.445573
O       0.156072   -1.736605    1.719010
C       0.836800   -2.632721    2.460282
N       0.235894   -3.622931    2.962173
H       0.092115    2.128072    0.457711
H      -0.710803    1.636119   -1.040966
H      -1.464193    1.263850    0.517642
H      -0.420150   -0.766620   -0.454670
H       2.206206   -1.820537    0.036416
H       3.050793   -0.394680    0.723591
H       1.561878    1.307224    2.104211
H       0.107513    0.663359    2.900177
H       1.693834   -0.059527    3.218054
H       1.909328   -2.413220    2.549858
H       0.896767   -4.210105    3.466855
