25

C       0.015827    1.607305   -0.004715
C       0.022274    0.071286    0.049843
C       0.611452   -0.531704   -1.236776
C       0.913010   -2.043266   -1.139377
C      -0.376471   -2.841170   -0.865016
C       1.525561   -2.525584   -2.463572
C       1.922505   -2.265589    0.010805
C       1.609186   -1.460283    1.245292
C       0.763235   -0.431103    1.264616
H       1.035906    2.000351   -0.078340
H      -0.547868    1.966813   -0.872215
H      -0.442792    2.033918    0.893758
H      -1.028127   -0.248721    0.136945
H      -0.066688   -0.341749   -2.078677
H       1.548360   -0.006063   -1.469011
H      -1.141391   -2.623107   -1.618910
H      -0.176870   -3.918017   -0.898206
H      -0.794996   -2.613955    0.119237
H       2.425517   -1.953828   -2.716244
H       1.806448   -3.583540   -2.406544
H       0.815138   -2.414549   -3.290547
H       1.962339   -3.333417    0.266081
H       2.936976   -2.014465   -0.334387
H       2.117818   -1.753966    2.161211
H       0.579209    0.097268    2.198645
