17

C      -0.183688    1.437887   -0.065243
C      -0.205572   -0.015508   -0.054101
C      -0.257349   -1.219522   -0.043643
C      -0.278626   -2.658202   -0.032738
N      -1.370194   -3.308007    0.013146
N       1.032250   -3.200422   -0.078554
C       1.374287   -4.538640   -0.082089
C       2.871824   -4.788575   -0.137012
O       0.555053   -5.435618   -0.044766
H       0.841084    1.822750   -0.096393
H      -0.716987    1.829907   -0.938081
H      -0.668110    1.842693    0.829953
H      -1.174509   -4.310562    0.012777
H       1.780314   -2.525133   -0.111634
H       3.374108   -4.339688    0.726394
H       3.045236   -5.863949   -0.136055
H       3.307190   -4.352051   -1.042086
