21

C      -0.057332    1.532301    0.010990
C      -0.052377    0.001827    0.002878
C      -1.457302   -0.582568    0.012831
O      -1.360545   -1.993674    0.004455
C      -2.603200   -2.625831    0.012704
C      -2.405103   -4.133095    0.002672
O      -1.356956   -4.716277   -0.011800
O      -3.614662   -4.733354    0.012504
C      -3.584953   -6.165868    0.004150
H       0.962547    1.927000    0.003576
H      -0.575166    1.935895   -0.866231
H      -0.558707    1.926582    0.901901
H       0.473189   -0.373769   -0.882191
H       0.489482   -0.383024    0.874036
H      -2.010339   -0.243196    0.906504
H      -2.026805   -0.233805   -0.866775
H      -3.200125   -2.362542    0.902769
H      -3.216573   -2.353122   -0.863262
H      -3.061272   -6.546113    0.884964
H      -4.627114   -6.485187    0.012559
H      -3.078584   -6.536141   -0.890908
