19

C       0.004140    1.357812   -0.722650
C      -0.005169   -0.006309   -0.063453
C       1.211772   -0.855384   -0.128582
N       0.807192   -0.219792    1.141817
C      -1.370352   -0.670969   -0.007305
C      -1.681669   -1.686848    1.079889
C      -2.306819   -0.328142    1.145757
C      -1.972202   -0.891280   -1.298855
N      -2.440833   -1.058875   -2.343757
H       1.020033    1.762152   -0.769130
H      -0.385329    1.303009   -1.743947
H      -0.622211    2.063177   -0.165019
H       1.118324   -1.937331   -0.142768
H       2.079514   -0.465432   -0.653272
H       1.377491    0.602040    1.323514
H      -2.304640   -2.529216    0.804751
H      -0.867744   -1.894636    1.763369
H      -1.910231    0.369641    1.874480
H      -3.362558   -0.224008    0.926912
