18

O       0.635621    1.031100   -0.562476
C      -0.085274   -0.091397   -0.058165
C      -0.181941   -1.168862   -1.047757
C      -0.213448   -2.053361   -1.861221
C       0.560290   -0.590698    1.231330
C       0.260942   -0.074801    2.580298
C      -1.214655    0.267872    2.771844
C      -1.516001   -1.177134    2.300848
N      -0.049897   -1.524551    2.195057
H       1.457335    0.701229   -0.943093
H      -1.087512    0.296961    0.142331
H      -0.257053   -2.834856   -2.579337
H       1.603013   -0.862350    1.069971
H       1.051261    0.168737    3.283742
H      -1.476106    0.426718    3.819153
H      -1.608341    1.105320    2.187598
H      -1.971376   -1.798660    3.073538
H      -2.078000   -1.312853    1.371984
