16

C       0.055407    1.441645   -0.123693
N       0.016371   -0.005616   -0.100758
C      -1.076489   -0.621381    0.046563
C      -2.478613   -0.089576    0.219037
O      -1.087821   -1.985071    0.065136
C       0.186312   -2.600057   -0.089691
C      -0.006835   -4.049817   -0.045557
N      -0.116952   -5.198650   -0.016077
H       0.717292    1.798324    0.673791
H       0.494433    1.776703   -1.070377
H      -0.917591    1.936370   -0.005358
H      -2.768663    0.520250   -0.641236
H      -3.181647   -0.916116    0.318291
H      -2.545530    0.540795    1.110237
H       0.646724   -2.307341   -1.039527
H       0.870080   -2.283911    0.705505
