20

C       0.064688    1.526892    0.122678
C      -0.020525    0.031508    0.001099
C      -0.909724   -0.800823    0.839483
N       0.547693   -0.911494    1.047275
C       1.033109   -1.800053   -0.066528
C       0.559867   -0.816277   -1.166660
C      -0.405671   -1.283780   -2.258824
C       1.718571   -0.088005   -1.829764
O       2.886900   -0.267894   -1.604747
H       1.074866    1.893225   -0.088648
H      -0.628904    2.020177   -0.568468
H      -0.194745    1.836066    1.139032
H      -1.420371   -0.301623    1.658086
H      -1.449568   -1.650328    0.427048
H       2.118924   -1.892999   -0.034236
H       0.569643   -2.791971   -0.069894
H      -1.305157   -1.730967   -1.829717
H      -0.718680   -0.447831   -2.895253
H       0.066841   -2.034047   -2.902555
H       1.396596    0.665601   -2.586374
