21

C       1.715442   -3.965319    1.595921
C       1.055634   -2.804282    0.882568
N       0.248046   -1.783324    1.569520
C       0.063732   -1.841389    3.012497
C       1.539779   -1.390634    0.975538
C       2.725388   -0.985162    1.829349
C       1.314343   -0.469324   -0.215811
O       0.801412    0.784392    0.204216
H       2.266447   -3.673513    2.491098
H       0.971060   -4.714876    1.887304
H       2.424009   -4.454125    0.918913
H       0.611993   -3.103784   -0.068320
H       0.896768   -2.266874    3.587696
H      -0.117614   -0.829280    3.388635
H      -0.827812   -2.440362    3.226342
H       3.659876   -1.149068    1.281383
H       2.656388    0.083724    2.055199
H       2.795486   -1.528612    2.772527
H       2.258041   -0.260410   -0.732214
H       0.634749   -0.954429   -0.931752
H      -0.011080    0.575023    0.681580
