19

C       0.069721    1.479254   -0.078881
C       0.325086   -0.016788   -0.018344
O       0.474147   -0.500232   -1.341598
C       0.648817   -1.879288   -1.423708
C       0.905915   -2.446788   -2.805216
C       2.433109   -2.406664   -2.962659
O       2.990040   -1.765443   -1.816733
C       2.027116   -2.517793   -1.036344
C       1.810783   -3.533782   -2.214449
H       0.904378    1.987822   -0.569169
H      -0.841206    1.690410   -0.646251
H      -0.044536    1.888817    0.929298
H       1.232482   -0.226796    0.569588
H      -0.512362   -0.534151    0.480594
H      -0.163454   -2.424544   -0.917327
H       0.224028   -2.518704   -3.641912
H       2.954557   -2.350925   -3.908397
H       2.342894   -2.712220   -0.014064
H       1.816374   -4.609844   -2.305938
