25

C      -0.497655    1.472573    0.100837
C      -0.054553    0.006147    0.033083
C      -1.307260   -0.872703   -0.167225
C       0.958722   -0.262158   -1.104024
C       1.727123   -1.550183   -0.702117
C       1.445727   -1.758605    0.808225
C       0.737039   -0.468976    1.296775
C       1.768193    0.555679    1.792975
O      -0.202168   -0.719042    2.342554
H       0.351606    2.160927    0.137061
H      -1.092716    1.734263   -0.780798
H      -1.118768    1.648543    0.985439
H      -1.827707   -0.566854   -1.081184
H      -1.060286   -1.933434   -0.267880
H      -1.995307   -0.772061    0.674363
H       0.458188   -0.358105   -2.072355
H       1.651166    0.581781   -1.196711
H       1.386129   -2.412773   -1.281024
H       2.796600   -1.447547   -0.905806
H       0.770859   -2.602455    0.973190
H       2.356377   -1.961631    1.381157
H       2.488076    0.830987    1.016247
H       1.281379    1.464463    2.153976
H       2.341563    0.125866    2.623907
H       0.292386   -0.931394    3.140474
