17

O       0.219664    1.379894   -0.163226
C       0.058192    0.007495   -0.017969
C      -0.025645   -0.667413    1.374040
O       0.996830   -0.621930    2.294801
C      -1.485807   -0.117043    1.512582
C      -1.376995   -0.665015    0.051123
C      -0.638356   -1.904531    0.649360
C      -2.393255   -0.660488   -0.952201
C      -3.241538   -0.643486   -1.805327
H      -0.188394    1.837583    0.578633
H       0.734882   -0.464053   -0.734645
H       0.732568   -1.111727    3.081134
H      -2.156645   -0.668403    2.176350
H      -1.632015    0.959731    1.632983
H       0.014708   -2.458953   -0.028660
H      -1.259555   -2.566347    1.256342
H      -3.989499   -0.629964   -2.558617
