16

C       0.049371   -1.184934   -0.030580
C       0.038746    0.017385   -0.018305
C       0.014521    1.453533    0.019045
C      -0.312467    2.280009    1.320076
C       0.486772    3.339430    0.501498
N       1.314781    2.231861   -0.099186
C      -0.519986    3.607518   -0.646023
O      -0.151998    3.060110   -1.914665
C      -0.871139    2.236550   -1.005060
H       0.064070   -2.246628   -0.051357
H      -1.363699    2.470667    1.564934
H       0.226638    1.906737    2.194819
H       1.008376    4.180734    0.954053
H       1.915640    1.879103    0.647246
H      -1.192330    4.457882   -0.643447
H      -1.841040    1.862288   -1.311270
