19

C      -0.057779    1.651630   -0.141132
C      -0.022716    0.119171   -0.004543
O      -1.359963   -0.355757    0.198151
C      -1.510100   -0.678269    1.584092
C      -0.100129   -0.848795    2.109121
C       0.748519   -0.404047    1.193355
C       2.176471   -0.657519    0.800115
C       1.981980   -0.893457   -0.697440
C       0.773533   -0.519962   -1.128577
H       0.951337    2.067568   -0.221540
H      -0.617862    1.934502   -1.037886
H      -0.552397    2.097382    0.727239
H      -2.076625    0.110285    2.107915
H      -2.091699   -1.605897    1.669151
H       0.129111   -1.355304    3.038381
H       2.837921    0.203177    0.976893
H       2.623122   -1.511418    1.320317
H       2.770382   -1.303997   -1.319146
H       0.420548   -0.567971   -2.152228
