25

C      -0.336917    1.451817   -0.110376
C      -0.064385   -0.054770   -0.125523
C       0.871053   -0.531717   -1.255948
C       2.291798    0.018684   -1.101238
C       0.854229   -2.079630   -1.371099
C      -0.151559   -2.345537   -2.498046
C       0.069467   -1.131084   -3.404446
C      -1.094602   -0.754172   -4.306416
O       0.329227   -0.052729   -2.506798
H       0.564134    2.029091    0.119130
H      -0.709268    1.778850   -1.084313
H      -1.086369    1.700756    0.647345
H       0.363045   -0.371311    0.834815
H      -1.017069   -0.588400   -0.232738
H       2.747378   -0.330758   -0.168019
H       2.919253   -0.315474   -1.933084
H       2.294935    1.111563   -1.097181
H       1.845722   -2.449291   -1.653566
H       0.582518   -2.556826   -0.426130
H       0.013943   -3.296359   -3.011523
H      -1.179718   -2.341294   -2.118209
H       0.963368   -1.307646   -4.029016
H      -1.999587   -0.587401   -3.713573
H      -0.872465    0.163699   -4.858011
H      -1.292048   -1.550538   -5.031396
