18

C       0.073311    1.486490    0.040268
C       0.041320    0.031680    0.036308
C       0.025493   -1.172442    0.030924
C       0.018718   -2.611163    0.015787
C      -0.488995   -3.375059    1.251964
C      -1.321397   -3.384369    0.014566
C      -2.629011   -2.636168   -0.071718
C       1.102790   -3.226865   -0.715100
N       1.960680   -3.737154   -1.299639
H       1.039358    1.853863   -0.322375
H      -0.705711    1.906456   -0.605214
H      -0.075643    1.885750    1.049414
H       0.057258   -4.268052    1.531410
H      -0.803539   -2.746920    2.077575
H      -1.276328   -4.299193   -0.568709
H      -2.585164   -1.695586    0.482544
H      -2.881385   -2.403536   -1.110821
H      -3.438451   -3.244007    0.345915
