16

C       0.001552    1.474777    0.106807
C       1.307656    0.724574   -0.009066
N       2.085638    0.389717    1.186304
C       1.232283   -0.386284    1.994365
C       1.177424   -1.040916    3.200651
N      -0.013396   -1.730309    3.166290
N      -0.721317   -1.558135    2.025853
C       0.041212   -0.732539    1.326927
C      -0.013638   -0.044845    0.016743
H      -0.265321    1.928386    1.055408
H      -0.323311    2.023724   -0.770636
H       1.889644    0.823483   -0.918585
H       2.513763    1.191035    1.633627
H       1.835104   -1.095223    4.052284
H      -0.387773   -2.327610    3.882038
H      -0.417682   -0.527067   -0.864524
