17

C      -0.052543    1.552958    0.105552
O       1.177455    0.815657    0.145994
C      -0.029147    0.089218    0.007031
C      -0.491666   -0.854502    1.158738
N      -1.623633   -1.635468    0.593710
C      -1.428671   -1.575250   -0.660048
N      -2.156451   -1.673448   -1.843423
C      -1.391960   -0.486306   -2.373645
C      -0.333107   -0.730665   -1.241730
H      -0.345049    2.025408    1.042240
H      -0.200773    2.157495   -0.788359
H       0.338483   -1.499938    1.476398
H      -0.829288   -0.298000    2.037813
H      -3.170109   -1.673704   -1.809933
H      -1.047711   -0.612505   -3.401667
H      -1.938543    0.455863   -2.263654
H       0.550697   -1.261771   -1.602003
