21

C      -0.197577    1.535440    0.036602
C      -0.101134    0.017749    0.030727
C      -0.705292   -0.717592    1.228177
C       0.784905   -0.613551    1.092788
C       1.697649   -1.802915    0.800036
C       1.066612   -3.013130    0.164051
C       0.329753   -3.011765   -0.955163
C      -0.077414   -1.849463   -1.735702
C      -0.232934   -0.578839   -1.323794
H       0.602041    1.986434   -0.562715
H      -1.155027    1.872922   -0.377443
H      -0.117344    1.933727    1.052400
H      -1.205036   -0.120442    1.984252
H      -1.167867   -1.677685    1.032545
H       1.257471    0.114264    1.750504
H       2.513850   -1.443384    0.154545
H       2.172231   -2.107246    1.739897
H       1.270571   -3.968479    0.640440
H       0.004439   -3.972554   -1.350359
H      -0.318816   -2.055304   -2.776556
H      -0.552123    0.135713   -2.080640
