18

C       0.077879    1.527714    0.194816
C       0.027350    0.022138   -0.003924
C       0.823488   -0.641115   -1.204135
C       1.171033   -1.838578   -0.246480
O       2.472258   -2.350318   -0.017185
C       2.934301   -1.824399    1.189257
N       4.045944   -2.118840    1.715246
C       1.956443   -0.822154    1.668271
C       0.901101   -0.870945    0.852360
H       1.112745    1.883203    0.214427
H      -0.446964    2.044462   -0.615080
H      -0.397435    1.815866    1.137988
H      -1.010297   -0.329711   -0.027447
H       0.260388   -0.878405   -2.109335
H       1.715090   -0.059216   -1.446152
H       0.472391   -2.671253   -0.375632
H       4.554427   -2.784913    1.132443
H       2.206390   -0.115574    2.445794
