15

O      -0.188501    0.082012    0.344519
C       0.003331    1.173101   -0.143263
C       1.245696    1.892117   -0.081299
C       2.274994    2.526623   -0.049460
C       3.497179    3.274628   -0.009118
C       3.811315    4.169324   -1.226804
C       3.375955    4.812429    0.039470
C       4.607529    2.668595    0.680370
C       5.541674    2.174949    1.252550
H      -0.798591    1.709988   -0.691299
H       4.856822    4.219967   -1.504570
H       3.111350    4.112645   -2.051268
H       2.369898    5.207929    0.105298
H       4.115902    5.314452    0.650417
H       6.359219    1.727949    1.761988
