17

C      -0.006815    1.453753    0.017320
N      -0.011631   -0.004670   -0.026025
C      -0.084113   -0.693636   -1.203457
C      -0.085875   -2.050978   -1.198866
N      -0.016627   -2.773130   -0.039740
C       0.053160   -2.136808    1.094626
C       0.130270   -2.895749    2.384209
C       0.062046   -0.668143    1.204760
O       0.126594   -0.041067    2.253150
H       0.906233    1.808563    0.501257
H      -0.067798    1.842056   -0.999651
H      -0.853747    1.811220    0.607803
H      -0.138193   -0.102328   -2.109403
H      -0.142944   -2.608173   -2.125588
H       0.116546   -3.967543    2.184385
H       1.040173   -2.629600    2.933233
H      -0.705788   -2.626994    3.039164
