20

C       0.548800    1.504912   -0.429578
C       0.360911    0.032809   -0.238944
O      -0.920163   -0.424725    0.232530
C       0.246047   -0.789981    0.982128
C       0.841640   -2.028331    0.309946
C       1.053328   -1.160454   -0.978187
N       0.614181   -1.728280   -2.232229
C      -0.785507   -1.608346   -2.635790
C       0.277242   -0.826230   -3.328747
H       1.608711    1.745656   -0.561328
H       0.010153    1.864951   -1.313068
H       0.170496    2.053031    0.438211
H       0.273085   -0.490631    2.023830
H       1.776973   -2.384495    0.746369
H       0.142235   -2.859996    0.202966
H       2.117363   -0.919010   -1.086194
H      -1.201042   -2.492292   -3.112479
H      -1.465959   -1.073592   -1.982614
H       0.305611    0.245861   -3.145438
H       0.633998   -1.125317   -4.310807
