17

C      -0.051472    1.513212    0.051185
C      -0.004786    0.058754    0.012593
C       0.042831   -1.142899   -0.024665
C       0.075687   -2.609753   -0.059982
C      -1.344773   -3.213971    0.089438
C       0.730228   -3.099039   -1.276421
C       1.264300   -3.523601   -2.275295
C       1.860982   -3.998314   -3.402573
C       2.391415   -4.420916   -4.401677
H       0.513483    1.907027    0.903096
H       0.376621    1.945468   -0.859776
H      -1.081325    1.876222    0.138722
H       0.672728   -2.958669    0.796214
H      -1.793878   -2.868991    1.023927
H      -1.979008   -2.899347   -0.742006
H      -1.290175   -4.305400    0.097951
H       2.856193   -4.791498   -5.281177
