14

C      -0.049349    1.334847    0.067118
O       0.028062   -0.096954   -0.042031
C       0.645297   -0.538119   -1.126489
O       1.134770    0.118881   -2.006032
N       0.674330   -1.954265   -1.150256
C       1.238024   -2.715011   -2.133728
C       1.021674   -3.997821   -1.724997
N       0.345669   -3.972223   -0.528904
N       0.133184   -2.750718   -0.176440
H       0.952678    1.768353    0.097072
H      -0.597211    1.751535   -0.780865
H      -0.579440    1.522882    0.999424
H       1.714958   -2.267043   -2.987159
H       1.298405   -4.926092   -2.196582
