21

C      -0.148393    1.566089    0.024589
C       0.016930    0.037941   -0.003070
C       0.796467   -0.488399   -1.209126
C       2.260795   -0.110035   -1.377513
C       1.903537   -1.394508   -0.691511
O       2.307699   -2.580147   -1.304830
C       1.784423   -1.326371    0.795878
C       0.782207   -0.533991    1.192232
C       0.410672   -0.192472    2.601194
H       0.823666    2.069224    0.029713
H      -0.698639    1.908868   -0.857069
H      -0.702377    1.893619    0.910263
H      -0.994729   -0.397506   -0.009582
H       0.258890   -0.747690   -2.113911
H       2.645996   -0.201262   -2.387964
H       2.694312    0.693249   -0.790850
H       1.675161   -3.265262   -1.060402
H       2.472196   -1.850948    1.451429
H       1.015949   -0.751040    3.320242
H       0.545136    0.876333    2.809188
H      -0.646341   -0.415312    2.797767
