22

C      -0.226779    1.634570    0.153788
C      -0.217683    0.108978    0.037897
C       1.006210   -0.526685    0.697488
N       0.955197   -1.980374    0.578239
C       1.989676   -2.647155    0.840541
C       2.121917   -4.154369    0.783164
C       3.640461   -4.358179    0.686479
C       4.164289   -3.129953    1.442967
O       3.189336   -2.098914    1.224121
H       0.657564    2.076030   -0.320130
H      -1.110163    2.065991   -0.326882
H      -0.230316    1.954512    1.202236
H      -1.120260   -0.313096    0.495305
H      -0.242873   -0.190020   -1.017030
H       1.927666   -0.123407    0.251444
H       1.039383   -0.243550    1.760737
H       1.724335   -4.585644    1.709847
H       1.549833   -4.568910   -0.046700
H       3.990020   -5.296782    1.120936
H       3.965543   -4.323714   -0.357953
H       4.243315   -3.320318    2.521324
H       5.128707   -2.763510    1.083256
