14

C      -0.304340    1.524650   -0.044537
C       0.004913    0.037852   -0.051280
C       1.316603   -0.441220   -0.712920
O       1.722057   -1.142340    0.488465
C       0.601130   -0.632183    1.228598
C       1.005344    0.274803    2.309968
N       1.309056    0.998075    3.158826
H       0.544048    2.108171    0.324612
H      -0.538510    1.865944   -1.058124
H      -1.166877    1.748194    0.590873
H      -0.859327   -0.532925   -0.398656
H       1.221987   -1.122175   -1.564583
H       2.019145    0.362703   -0.965634
H      -0.000565   -1.439508    1.662029
