18

N      -0.061554    1.250655   -0.389725
C      -0.006342   -0.014332    0.144258
O       0.993823   -0.471360    0.666953
C      -1.273818   -0.779208    0.003491
C      -1.770655   -1.616478    1.166141
C      -1.463996   -2.307331   -0.113747
C      -2.624533   -2.103599   -1.096013
C      -2.363046   -0.557144   -1.033192
O      -3.383762    0.323594   -0.605083
H       0.713614    1.858694   -0.174160
H      -0.961555    1.683851   -0.528539
H      -1.028295   -1.725759    1.948687
H      -2.797601   -1.500969    1.500740
H      -0.669281   -3.035657   -0.205155
H      -2.460412   -2.520509   -2.091471
H      -3.603156   -2.423463   -0.725139
H      -1.925590   -0.212380   -1.979687
H      -4.030967    0.407967   -1.313127
