18

C      -0.095451    1.495550    0.054251
C       0.055359   -0.020855    0.014921
N       0.625668   -0.446864   -1.260668
C       0.808036   -1.806287   -1.464875
N       0.305558   -2.763849   -0.689684
N       0.691005   -3.886192   -1.306918
N       1.413811   -3.732330   -2.417434
C       1.500628   -2.413745   -2.543568
N       2.223922   -1.758297   -3.545884
H       0.877076    1.994327   -0.034826
H      -0.731692    1.846170   -0.763701
H      -0.541582    1.811262    1.001469
H       0.660002   -0.369461    0.867383
H      -0.920886   -0.505317    0.115954
H       1.453747    0.078447   -1.517109
H       0.491993   -4.793203   -0.925110
H       2.608775   -2.422438   -4.207174
H       1.653799   -1.083571   -4.045144
