17

C       0.014940    1.524644   -0.018307
C       0.010250    0.018670   -0.006322
C      -0.009233   -0.710377   -1.194101
C      -0.013190   -2.100797   -1.153102
N       0.000919   -2.800719   -0.017865
C       0.019584   -2.097524    1.116570
C       0.025275   -0.704109    1.199085
C       0.046763   -0.019154    2.540262
H       0.902491    1.926045    0.484689
H       0.001570    1.912124   -1.039742
H      -0.855253    1.931704    0.509845
H      -0.021323   -0.196434   -2.150364
H      -0.028334   -2.676446   -2.075855
H       0.030922   -2.680847    2.036370
H       0.930084    0.620150    2.656056
H      -0.829162    0.625166    2.681661
H       0.056482   -0.751130    3.352004
