21

C       0.014717    0.956302   -2.101363
C      -0.011697   -0.199735   -1.124243
C       1.181053   -0.570922   -0.260577
C       2.491587    0.185492   -0.307905
C      -0.058962    0.024136    0.372463
N       0.007957    1.374130    0.860346
C      -1.207661    1.912490    1.461286
C      -0.037629    1.548432    2.308197
H       0.496722    1.836160   -1.672873
H       0.546371    0.683350   -3.019844
H      -1.003828    1.245257   -2.383931
H      -0.599552   -1.046954   -1.469850
H       1.301887   -1.638681   -0.092990
H       2.333986    1.264419   -0.342029
H       3.093187   -0.030091    0.582248
H       3.082808   -0.105682   -1.183372
H      -0.691619   -0.653241    0.955043
H      -1.427832    2.952724    1.238270
H      -2.079871    1.262573    1.512102
H      -0.128471    0.655385    2.924586
H       0.612475    2.317886    2.715140
