13

O       0.123372   -0.037186   -0.080077
C       0.030901    1.163725   -0.006300
C      -1.213122    1.972550    0.096745
C      -0.932432    3.292573    0.026563
C      -1.834319    4.373534    0.053018
C      -2.570554    5.327916    0.059352
C       0.569599    3.495719   -0.043128
O       1.236680    2.994333    1.122681
C       1.182719    2.167568   -0.056056
H      -2.192107    1.528916    0.216401
H      -3.231389    6.159830    0.073443
H       0.995998    4.378840   -0.505884
H       2.128563    1.913689   -0.522527
