17

C       0.016308    1.469829    0.033111
C       0.006908   -0.020007   -0.039505
N       0.036188   -0.699584   -1.116270
C      -0.011863   -2.120768   -0.763800
C       0.017198   -2.160695    0.775353
C       1.178941   -1.501241    1.436521
N      -0.066011   -0.730948    1.214075
C      -0.762361   -3.145318    1.465900
C      -1.405038   -4.008756    2.001398
H       0.865992    1.818068    0.630910
H       0.074682    1.896134   -0.968407
H      -0.889996    1.824400    0.534576
H      -0.937936   -2.568896   -1.139832
H       0.822512   -2.658192   -1.226944
H       1.391844   -1.726896    2.476132
H       2.039957   -1.254022    0.819589
H      -1.976529   -4.760482    2.487186
