15

C       0.206932    1.795340   -0.120595
C      -0.084510    0.338016    0.241713
O      -1.472872    0.213802    0.440844
C      -1.921674   -0.913936    1.050894
N      -3.157200   -1.067406    1.226568
C       0.394445   -0.624743   -0.851338
O      -0.306287   -1.416152   -1.421842
C       1.841020   -0.538505   -1.149494
N       2.976329   -0.468155   -1.357753
H       1.275126    1.951160   -0.286685
H      -0.342272    2.074974   -1.023112
H      -0.120539    2.437529    0.699076
H       0.472996    0.072236    1.155812
H      -1.119761   -1.597135    1.358422
H      -3.338660   -1.946053    1.706860
