19

C       0.080986    1.517687   -0.065913
C      -0.033636   -0.000567    0.086679
C      -1.475280   -0.550787   -0.041113
O      -2.056150   -0.167226   -1.273889
C      -1.496052   -2.082845    0.151868
C      -2.026387   -2.270094    1.551668
C      -2.490255   -1.137859    2.099835
C      -2.358480   -0.043762    1.122283
O      -2.881186    1.051063    1.130235
H       1.127116    1.829077    0.008358
H      -0.292612    1.833028   -1.044214
H      -0.488240    2.049570    0.700633
H       0.560127   -0.492220   -0.693487
H       0.382401   -0.321584    1.050308
H      -2.516284    0.666040   -1.098837
H      -2.170695   -2.535360   -0.584046
H      -0.514754   -2.550954    0.018272
H      -2.038707   -3.242549    2.033301
H      -2.958309   -1.020464    3.068480
