19

C       0.054445    1.535891    0.007507
C       0.020336    0.025736    0.046103
C       1.003616   -0.864448   -0.800035
C       0.509910   -1.961343    0.227697
C       0.519221   -0.810778    1.282481
C       1.266142   -3.234590    0.397307
O       2.013350   -3.471160    1.314537
C      -0.984767   -2.001837   -0.149903
C      -1.301386   -0.709892   -0.249721
H       1.057274    1.915251    0.227555
H      -0.238131    1.914572   -0.978366
H      -0.633079    1.963823    0.745726
H       0.764404   -1.025088   -1.853398
H       2.056740   -0.597570   -0.664634
H       1.526513   -0.543964    1.614458
H      -0.160428   -0.911221    2.131048
H       1.110959   -3.979184   -0.419451
H      -1.590335   -2.888914   -0.270383
H      -2.250111   -0.242556   -0.476093
