15

N       0.031330   -1.164807    0.002356
C       0.021137   -0.009813    0.022632
C      -0.017227    1.451082    0.018483
C      -0.723592    2.065748    1.243088
N      -0.080417    1.793407    2.528751
C       0.176627    3.080123    1.856812
C       1.470623    3.098054    1.065156
O       2.201789    1.871770    1.099618
C       1.374300    2.113282   -0.026116
H      -0.559595    1.769265   -0.881023
H      -1.800789    2.185724    1.196536
H      -0.755069    1.922202    3.278974
H      -0.197280    4.004201    2.282631
H       2.062279    4.006358    1.000829
H       1.882056    2.194812   -0.984132
