14

N      -0.368738    1.229267    0.423161
C      -0.151331    0.046322    0.052742
O       1.087894   -0.502986   -0.186577
C       0.986841   -1.769675   -0.855182
C       1.877648   -2.786509   -0.145924
O       2.329935   -3.749245   -0.703129
C      -0.487148   -2.147262   -0.783252
O      -0.956362   -2.183907    0.561754
C      -1.187897   -0.991935   -0.214479
H       0.503225    1.755297    0.505632
H       1.311838   -1.670482   -1.896910
H       2.050020   -2.566350    0.927326
H      -0.915879   -2.856209   -1.483155
H      -2.218087   -0.717471   -0.403190
