17

O      -0.059937    1.389614   -0.343007
C      -0.007237    0.036640   -0.056051
C       0.029552   -0.406508    1.436606
O      -1.047798   -1.342576    1.218066
C      -1.323606   -0.763696   -0.056354
C      -2.665323   -0.249214   -0.450563
C      -2.066262   -1.470266   -1.137989
C       1.059377   -0.645445   -0.881902
O       1.723590   -0.036374   -1.685811
H       0.619527    1.542430   -1.020641
H       0.932549   -0.899926    1.810796
H      -0.254728    0.419834    2.098095
H      -3.478628   -0.418922    0.246540
H      -2.702198    0.689822   -0.991955
H      -1.718476   -1.374887   -2.162001
H      -2.486384   -2.439410   -0.890841
H       1.187717   -1.731615   -0.709152
