20

C       1.090439    1.345143    0.096975
C       0.112902    0.173265    0.128128
C       0.298254   -0.861054   -1.027181
C       1.033189   -1.813482   -0.061519
O       2.444556   -1.641686   -0.200823
C       3.231098   -2.512271    0.469451
N       4.466809   -2.282352    0.579116
C       0.485360   -0.970837    1.132347
O       1.339929   -0.726384    2.211604
H       2.116431    1.011187   -0.089281
H       0.824444    2.044341   -0.702327
H       1.073925    1.893878    1.044112
H      -0.907243    0.548518    0.248706
H      -0.640638   -1.286795   -1.388037
H       0.894775   -0.535259   -1.881739
H       0.784048   -2.880060   -0.092941
H       2.687567   -3.385514    0.853197
H       4.919645   -3.047917    1.074034
H      -0.413514   -1.435048    1.548816
H       2.167643   -0.376016    1.861869
