18

C       0.080176    1.528347   -0.009757
C      -0.079837    0.050097    0.128877
C      -1.378567   -0.786141    0.034996
C      -0.713844   -1.802058    0.998282
C      -1.357363   -2.464005    2.180419
C      -0.814784   -3.294687    1.036301
C       0.535028   -0.944767    1.028623
O       0.982260   -0.799049   -0.332614
H       1.093413    1.829888    0.268919
H      -0.095227    1.843013   -1.045071
H      -0.634242    2.059644    0.627372
H      -2.248436   -0.288997    0.474296
H      -1.621113   -1.140849   -0.970310
H      -0.815854   -2.474692    3.121456
H      -2.434025   -2.380484    2.290007
H      -1.528568   -3.771112    0.372117
H       0.091169   -3.868868    1.200488
H       1.280150   -0.841592    1.810824
