19

C      -0.039239    1.571732   -0.000412
C      -0.019010    0.069614   -0.013668
C      -1.127177   -0.674246   -0.086466
C      -1.078167   -2.162487   -0.134029
O      -1.471855   -2.804205   -1.358661
C      -0.087258   -2.830266   -0.996795
C       0.817104   -1.970628   -1.866131
O       1.789315   -1.223896   -1.149815
C       1.345742   -0.606931    0.058640
H       0.540080    1.971787   -0.842263
H      -1.056473    1.966713   -0.063950
H       0.425863    1.966647    0.911886
H      -2.109684   -0.208044   -0.121457
H      -1.435282   -2.692998    0.750868
H       0.284957   -3.810705   -0.701225
H       1.388359   -2.589404   -2.565044
H       0.162971   -1.312867   -2.452123
H       2.120327    0.128319    0.294668
H       1.340878   -1.346405    0.872152
