15

N      -0.026881    1.215386   -0.359467
C      -0.031117    0.010890   -0.033460
O       1.051941   -0.843114    0.337346
C       0.059902   -1.828050    0.800618
C      -0.664056   -1.770222    2.127852
N      -1.814748   -2.039410    1.151893
C      -0.907699   -2.978143    0.286245
C      -1.219918   -2.228731   -1.004421
C      -1.035105   -1.136610    0.057461
H       0.915388    1.610295   -0.350280
H      -0.508962   -2.576937    2.847987
H      -0.749491   -0.798535    2.622116
H      -0.897430   -4.046648    0.511958
H      -0.459474   -2.269752   -1.786276
H      -2.227879   -2.349168   -1.406035
