17

C      -0.061397    1.470670   -0.002524
N      -0.040281    0.022244   -0.001450
C       0.077518   -0.774270   -1.113135
C       0.159007   -2.083852   -0.704274
C       0.092293   -2.084639    0.717962
C       0.114806   -3.283073    1.630295
C       1.386817   -4.014777    1.597088
N       2.386199   -4.594031    1.564966
C      -0.024873   -0.771260    1.116537
H       0.947453    1.891769    0.074989
H      -0.520141    1.828514   -0.926941
H      -0.657214    1.831720    0.839162
H       0.093115   -0.338225   -2.099561
H       0.248577   -2.946618   -1.346658
H      -0.071820   -2.974686    2.664715
H      -0.682045   -3.991960    1.371757
H      -0.099039   -0.339402    2.102622
