12

N      -0.005573    1.346823    0.007975
C      -0.018984    0.002604    0.000732
N      -1.162085   -0.639110    0.003980
C      -1.202824   -2.000040   -0.003287
O      -2.171024   -2.698250   -0.001476
O       0.063923   -2.709151   -0.014815
C       1.212717   -2.035920   -0.017933
C       1.238618   -0.695196   -0.010666
F       2.379008    0.011355   -0.013610
H       0.862409    1.851863    0.005575
H      -0.882646    1.840122    0.015935
H       2.100752   -2.658518   -0.026709
