21

C       0.121865    1.600321   -0.150763
C      -0.025464    0.077656   -0.182722
C      -1.385591   -0.404013    0.342026
C      -1.498801   -1.930325    0.295984
C      -2.092268   -2.880322    1.310116
C      -3.479997   -2.430266    1.861764
O      -3.837779   -1.160956    1.296292
C      -4.029358   -2.348990    0.514773
C      -2.670549   -2.794707   -0.107798
H       1.098843    1.917201   -0.529451
H      -0.646591    2.084811   -0.763569
H       0.018444    1.986186    0.869628
H       0.115641   -0.283571   -1.210656
H       0.776267   -0.381545    0.411756
H      -1.529119   -0.045122    1.365434
H      -2.186010    0.052233   -0.247858
H      -0.589604   -2.383965   -0.102245
H      -1.531166   -3.694966    1.750606
H      -3.925441   -2.702174    2.810869
H      -5.021281   -2.540051    0.123953
H      -2.610336   -3.535168   -0.895580
