19

C      -0.071845    1.387629   -0.024131
O       0.124765   -0.006691    0.075836
C       0.687695   -0.581711   -1.079754
C       1.065054   -2.035570   -0.857065
C      -0.172252   -2.872344   -1.199430
C      -1.269491   -1.895026   -1.607178
C      -0.314174   -0.866227   -2.243054
O       0.489694   -1.651992   -3.134620
C       0.914926   -2.655994   -2.222867
H       0.869798    1.912576   -0.247048
H      -0.805252    1.654992   -0.799223
H      -0.446664    1.730481    0.943155
H       1.537006    0.018646   -1.439608
H       1.811235   -2.342774   -0.137956
H      -0.363881   -3.832960   -0.741905
H      -1.966308   -2.313606   -2.338203
H      -1.814630   -1.479468   -0.757763
H      -0.739537   -0.019642   -2.776993
H       1.554589   -3.414194   -2.650898
