14

C      -0.002378    1.414177   -0.102855
N       0.019569   -0.030887   -0.004099
N       0.026394   -0.825719   -1.101291
C       0.047095   -2.046266   -0.578037
C       0.060539   -3.218193   -1.471125
O       0.079412   -4.365789   -1.101193
N       0.054076   -2.089908    0.790753
C       0.036410   -0.817051    1.099439
O       0.033917   -0.275194    2.319445
H       0.880280    1.765369   -0.642488
H      -0.900665    1.739046   -0.633115
H      -0.003162    1.826200    0.906319
H       0.051370   -2.935300   -2.544501
H       0.047528   -1.005692    2.951678
