18

C      -0.012061    1.539562    0.089426
C       1.537657    1.376212    0.045113
C       1.764703    0.617006    1.364943
C       1.995481   -0.865557    1.230687
O       2.615897   -1.443007    0.125546
C       2.086073   -0.977045   -1.107393
C       1.187292    0.224037   -0.930653
N      -0.048676    0.019934   -0.062327
C       0.578811   -0.360081    1.233279
H      -0.467880    1.913522    1.009427
H      -0.451069    2.021405   -0.789084
H       2.231988    2.179323   -0.208342
H       2.015931    1.159507    2.268894
H       2.309068   -1.385195    2.130895
H       2.927369   -0.722713   -1.764888
H       1.512783   -1.784344   -1.588075
H       0.862356    0.588369   -1.908226
H      -0.113680   -0.602764    2.030414
