14

O      -0.128449    1.375637    0.048744
C      -0.096585   -0.002313    0.034481
C       1.035075   -0.591103    0.774536
O       1.864184    0.106541    1.318721
C      -1.382777   -0.817260    0.037960
C      -2.389099   -0.079382   -0.844562
O      -1.458940   -0.070869   -1.964339
C      -0.520544   -0.802557   -1.203672
H       0.673110    1.638304    0.529346
H       1.095631   -1.698075    0.793139
H      -1.609143   -1.586695    0.764788
H      -3.267567   -0.683378   -1.089824
H      -2.679640    0.928255   -0.536825
H       0.092410   -1.539604   -1.711470
