19

C      -0.215190    1.575286    0.036811
C       0.047214    0.069488   -0.015320
C       0.989178   -0.504791   -1.112175
C       2.286633    0.264261   -0.783509
C       2.428029   -0.458282    0.567189
O       2.663033   -1.780035    0.052809
C       1.346772   -1.945100   -0.442684
O       0.605665   -1.966737    0.764971
C       0.887039   -0.598389    1.097187
H       0.659319    2.169456    0.311564
H      -0.578740    1.944082   -0.928542
H      -0.990511    1.786759    0.780610
H      -0.917249   -0.443385   -0.029345
H       0.634275   -0.526385   -2.141170
H       3.138670    0.020138   -1.418607
H       2.155296    1.344947   -0.758408
H       3.194997   -0.170280    1.282340
H       1.231458   -2.861124   -1.016588
H       0.683259   -0.394355    2.146528
