23

C       0.073283    1.576484   -0.022247
C       0.259287    0.057174   -0.035781
C       0.550999   -0.525066    1.354929
C       0.747207   -2.028884    1.343134
O      -0.408381   -2.739992    0.947741
C       2.023644   -2.732798    0.944286
C       3.275557   -2.002586    1.445340
C       2.725442   -2.089263    2.908612
C       1.482289   -2.816624    2.387227
H       0.972990    2.081789    0.346415
H      -0.138602    1.962895   -1.024147
H      -0.757900    1.867092    0.629736
H      -0.647073   -0.410773   -0.441550
H       1.078322   -0.208602   -0.717262
H       1.435042   -0.030456    1.770483
H      -0.282973   -0.293945    2.030398
H      -0.500736   -2.643753   -0.005825
H       2.002252   -3.494340    0.172683
H       4.184356   -2.594694    1.316828
H       3.459488   -1.003342    1.037004
H       3.346639   -2.729365    3.538636
H       2.558169   -1.146783    3.439795
H       0.977592   -3.643620    2.871687
