20

C      -0.023552    1.317724    0.383000
C       0.119588   -0.182095    0.203237
O       0.274422   -0.926913    1.148575
C       0.041258   -0.675078   -1.206067
C       0.487261   -2.101066   -1.496639
C      -0.971453   -1.765691   -1.560188
N      -1.995922   -2.175373   -0.639254
C      -2.499140   -3.544564   -0.788560
C      -1.710669   -3.149719    0.407196
H       0.771531    1.843846   -0.158044
H      -0.975741    1.656824   -0.040712
H       0.022061    1.571899    1.442390
H       0.192335    0.080567   -1.969953
H       1.023614   -2.290945   -2.419788
H       0.858647   -2.627807   -0.625138
H      -1.385835   -1.652233   -2.558594
H      -3.578922   -3.652921   -0.739639
H      -2.004379   -4.190321   -1.511852
H      -0.703887   -3.544220    0.494371
H      -2.199928   -2.955233    1.356273
