18

C       0.022019    1.476878   -0.069031
C       0.028522   -0.015223    0.034341
N       0.036794   -0.771961   -1.058903
N       0.040090   -2.037360   -0.589746
C       0.032128   -2.113672    0.768288
C       0.042729   -3.421830    1.489694
C       0.024924   -0.804749    1.218241
C       0.017697   -0.306351    2.630280
H       0.905038    1.918826    0.407707
H       0.012463    1.776793   -1.119023
H      -0.856883    1.911404    0.421931
H       0.040807   -2.799652   -1.245545
H       0.999245   -3.946165    1.375799
H      -0.122585   -3.269604    2.558366
H      -0.744964   -4.091734    1.126103
H       0.932065    0.249110    2.873080
H      -0.823358    0.372341    2.816003
H      -0.062227   -1.127022    3.349069
