14

O       0.025364   -0.023562   -0.223334
C      -0.007499    1.175961   -0.095591
C      -1.296296    1.985134    0.048677
O      -1.279610    3.067267   -0.871080
C      -0.298983    4.049119   -0.591934
C       1.079800    3.477299   -0.305615
O       1.276973    2.957527    1.004024
C       1.235612    2.021219   -0.090119
H      -2.144692    1.350099   -0.211005
H      -1.406116    2.335750    1.086818
H      -0.258385    4.689618   -1.477793
H      -0.598981    4.668917    0.268932
H       1.931321    4.032851   -0.698450
H       2.168665    1.510142   -0.315477
