17

C      -0.043892    1.519734    0.049139
N       0.103248    0.070272   -0.008476
C       0.786018   -0.544770   -1.140081
C       2.315068   -0.591401   -0.861033
C       2.516887    0.019856    0.521491
C       1.116040   -0.597302    0.862083
C       0.737000   -0.872626    2.227090
N       0.453737   -1.095268    3.325607
C       1.365386   -1.638008   -0.310788
H       0.869478    2.085408   -0.186953
H      -0.818771    1.815261   -0.665050
H      -0.385310    1.802379    1.049701
H       0.363308   -0.578665   -2.135903
H       3.045631   -0.713314   -1.649501
H       3.299058   -0.504006    1.074497
H       2.637737    1.100302    0.639186
H       1.312764   -2.715120   -0.352105
