18

C      -0.064591    1.541590   -0.032075
C       0.060332    0.035646    0.031233
C       1.387918   -0.655372   -0.155819
O       2.557866    0.100535   -0.262945
C       0.733262   -0.677225    1.218993
C       1.355744    0.125975    2.353121
C       0.138747   -1.924399    1.623087
C      -0.360859   -2.962950    1.969995
H       0.872199    2.039644    0.225435
H      -0.341073    1.856732   -1.044762
H      -0.841853    1.905558    0.647534
H      -0.793197   -0.502933   -0.370214
H       1.403105   -1.597922   -0.700974
H       2.576705    0.498518   -1.139919
H       1.931854    0.968867    1.972144
H       0.582980    0.497909    3.032786
H       2.033556   -0.509401    2.930219
H      -0.798682   -3.880217    2.276140
