15

C       0.016716    1.488467   -0.023855
C      -0.026313   -0.021668   -0.022686
O      -0.085364   -0.690841    0.996010
C       0.005915   -0.693656   -1.326626
N       0.068939   -0.151782   -2.543448
C       0.073040   -1.199181   -3.398264
O       0.129972   -1.042523   -4.735669
C       0.012432   -2.405994   -2.720404
N      -0.029337   -2.049212   -1.400529
H       0.925977    1.840372   -0.521256
H      -0.825406    1.890609   -0.595703
H      -0.016274    1.851643    1.003561
H       0.163191   -0.092119   -4.900313
H      -0.002985   -3.426455   -3.060093
H      -0.078001   -2.642133   -0.586458
