18

C      -0.040036    1.454212    0.024408
N       0.015991    0.005397   -0.088990
C      -1.236721   -0.723864    0.065871
C      -1.145576   -2.098287   -0.579193
N       0.013224   -2.783111   -0.040927
C       1.238581   -2.149667   -0.074478
N       2.330708   -2.802133   -0.043466
C       1.232360   -0.618513   -0.095181
O       2.294609   -0.020040   -0.121308
H       0.969730    1.844532   -0.090011
H      -0.689048    1.871059   -0.753732
H      -0.435394    1.755854    1.003129
H      -1.495329   -0.824782    1.130406
H      -2.031859   -0.144234   -0.414784
H      -2.044441   -2.671959   -0.337472
H      -1.102097   -1.987767   -1.675002
H       0.080628   -3.779344   -0.199339
H       3.096333   -2.125412   -0.020594
