18

N       0.404553    1.090876    0.717819
C      -0.107037   -0.017725   -0.068809
C      -1.599428    0.060485   -0.407660
C      -1.673562   -0.765452   -1.678729
C      -2.351702   -2.099382   -1.788103
C      -2.860164   -0.896246   -2.568385
O      -0.407722   -0.642950   -2.335513
C       0.530863   -0.197564   -1.458309
O       1.665418    0.020807   -1.773098
H       1.414331    0.992351    0.794657
H       0.258119    1.959472    0.208133
H       0.095048   -0.947041    0.481737
H      -2.249165   -0.316812    0.383049
H      -1.876877    1.102906   -0.609713
H      -1.836045   -2.870466   -2.348827
H      -2.931177   -2.454184   -0.942421
H      -3.786328   -0.424915   -2.256788
H      -2.677756   -0.883675   -3.636792
