12

N      -0.182069    1.282815    0.180766
C      -0.060710   -0.069403    0.248129
O       0.730823   -0.674476    0.929949
O      -0.999362   -0.648835   -0.560877
C      -1.030032   -2.073139   -0.568127
C      -2.351108   -2.563792   -0.004514
O      -2.800898   -3.655902   -0.224480
H       0.550998    1.828691    0.597974
H      -0.745789    1.695812   -0.541733
H      -0.907822   -2.427592   -1.595256
H      -0.209890   -2.459191    0.048575
H      -2.866182   -1.822869    0.647843
