19

C      -0.003660    1.551191    0.001307
C       1.457835    1.953215   -0.059570
C       2.372832    1.274640    0.949105
C       1.862133    0.631563    2.237256
O       1.254366   -0.634664    2.082475
C       0.011067   -0.637396    1.420891
C       0.047919    0.000880    0.015842
O       1.267511   -0.356642   -0.636208
C       2.181609    0.689191   -0.434909
H      -0.540380    1.944945    0.870236
H      -0.520923    1.906821   -0.895375
H       1.722981    2.923316   -0.463128
H       3.330146    1.773557    1.077760
H       2.713360    0.454222    2.901271
H       1.179782    1.324126    2.760686
H      -0.255424   -1.694684    1.329984
H      -0.770267   -0.141957    2.023914
H      -0.775121   -0.425614   -0.567744
H       3.008764    0.638453   -1.132654
