17

O      -0.046021   -0.065363    0.169865
C      -0.052510    1.135767    0.058381
C      -1.325527    1.967932    0.074076
C      -1.310071    3.047720   -1.019711
N      -0.079944    3.837660   -0.907347
C       1.130310    3.055056   -1.139416
C       1.236976    1.944637   -0.068663
C       1.194874    2.479419   -2.507263
N       1.204326    2.071561   -3.589211
H      -2.185138    1.302136   -0.026128
H      -1.380610    2.463046    1.052573
H      -1.417085    2.569525   -2.007265
H      -2.159337    3.724076   -0.890014
H      -0.109009    4.627464   -1.542743
H       1.992191    3.723188   -1.038208
H       1.411673    2.444742    0.891365
H       2.068599    1.267451   -0.269677
