21

C      -0.187619    1.472929    0.078369
C      -0.078241   -0.049268   -0.019551
C      -1.423391   -0.691593   -0.336756
C       1.132849   -0.492990   -0.919016
C       1.953390   -0.668617    0.353700
C       3.313160   -1.103944    0.652558
O       2.955301    0.291811    0.710866
C       0.691584   -0.663100    1.218884
O       0.772569    0.033285    2.427473
H       0.787596    1.939616    0.247826
H      -0.597755    1.887408   -0.849090
H      -0.843886    1.761749    0.904780
H      -1.812014   -0.345202   -1.301433
H      -1.342979   -1.783469   -0.382744
H      -2.166355   -0.442292    0.429354
H       0.955742   -1.439818   -1.438370
H       1.515810    0.242676   -1.630147
H       3.533236   -1.564764    1.614489
H       3.992514   -1.366306   -0.156966
H       0.325158   -1.675376    1.429149
H       1.535073    0.622932    2.342094
