17

C       0.021255    1.470443    0.139634
N      -0.107563    0.029795    0.251534
C      -1.216666   -0.644719   -0.160105
O      -2.197428   -0.097339   -0.632830
C      -1.133363   -2.166753   -0.014300
C      -2.506369   -2.770843    0.308308
C      -2.560627   -4.249422    0.014787
O      -2.928370   -5.099491    0.783356
H       0.852083    1.747415   -0.518813
H      -0.910095    1.847216   -0.283956
H       0.181830    1.931421    1.120197
H       0.659045   -0.495001    0.638132
H      -0.777157   -2.557430   -0.977899
H      -0.389134   -2.455650    0.735727
H      -2.794411   -2.600684    1.348864
H      -3.237788   -2.263461   -0.335623
H      -2.225089   -4.517526   -1.016758
