21

C       0.152122    1.429531   -0.099139
C      -0.030923   -0.053351   -0.059048
C      -1.146131   -0.776000    0.079366
C      -2.559747   -0.317458    0.251939
C      -0.801486   -2.244418    0.043934
C      -1.400975   -3.023312   -1.133561
O      -0.867392   -4.329178   -1.194025
O       0.626329   -2.297464   -0.081206
C       1.153106   -0.978194   -0.177109
H       0.823991    1.766493    0.700552
H       0.610837    1.744796   -1.045103
H      -0.793102    1.966550    0.008044
H      -2.633736    0.770835    0.311451
H      -3.194857   -0.649370   -0.578675
H      -2.998583   -0.735394    1.166756
H      -1.087059   -2.761353    0.975124
H      -2.485490   -3.123372   -1.014191
H      -1.210232   -2.460678   -2.062924
H       0.088878   -4.217911   -1.120584
H       1.689205   -0.850791   -1.131981
H       1.889872   -0.813839    0.626113
