20

C       0.081808    1.436747   -0.062045
N      -0.011935    0.004762    0.113074
C      -1.361083   -0.533198    0.082312
C      -1.212851   -1.908380    0.716737
O      -1.980196   -2.833749    0.652640
C       0.156665   -1.953827    1.441094
C       0.051282   -2.500416    2.859412
O       1.014996   -2.763130    0.635835
C       0.632568   -0.505382    1.324992
H       1.133722    1.739722   -0.071064
H      -0.361634    1.727467   -1.019716
H      -0.431451    2.005954    0.738413
H      -2.084027    0.043495    0.699825
H      -1.771258   -0.590981   -0.930739
H      -0.412777   -3.491542    2.838651
H       1.047550   -2.586106    3.302567
H      -0.563345   -1.855894    3.495802
H       0.577526   -3.616757    0.527967
H       1.721135   -0.444920    1.237445
H       0.326015    0.057955    2.227747
