15

O       1.281280    1.311466    0.990955
C       0.377758    0.839700    0.037327
C       1.053667    0.820766   -1.363997
C       0.141393    0.490522   -2.444998
C      -0.639120    0.216811   -3.328966
C      -1.513330   -0.092490   -4.324789
C      -2.290489   -0.368003   -5.206799
C      -0.122215   -0.541899    0.419592
O       0.246320   -1.076921    1.437685
H       1.334387    0.615479    1.666658
H      -0.506786    1.496209   -0.029579
H       1.483159    1.817147   -1.518638
H       1.896516    0.118963   -1.337978
H      -2.972074   -0.609496   -5.984399
H      -0.830914   -1.025862   -0.278221
