20

C      -0.031682    1.515046    0.038346
C      -0.001824    0.006196    0.001748
C       0.345542   -0.805212   -1.285190
C      -0.382510   -1.957760   -0.540848
C       0.555840   -2.214645    0.652885
C       0.842704   -0.733987    1.063181
C      -1.333268   -0.841018    0.006618
C      -2.057516   -1.040714    1.249709
N      -2.617351   -1.196542    2.250157
H       0.977686    1.925297   -0.078801
H      -0.654618    1.925283   -0.763192
H      -0.427744    1.877162    0.993519
H      -0.197783   -0.451565   -2.165183
H       1.403073   -0.945577   -1.524348
H      -0.791495   -2.820465   -1.065159
H       0.072252   -2.785158    1.449467
H       1.456616   -2.753555    0.347851
H       1.900188   -0.466298    0.982918
H       0.513447   -0.507356    2.080807
H      -2.021566   -0.488653   -0.765961
