18

C      -0.062377    1.474550    0.109203
C       1.408175    1.871184    0.022083
C       2.166529    0.930006   -0.547276
C       1.327598   -0.246235   -1.002945
C       1.639273   -1.706960   -0.699595
N       1.785768   -2.057535    0.726837
C       0.469086   -2.258669    0.047255
C      -0.444815   -1.108386    0.332793
C       0.049296    0.006423   -0.206009
H      -0.508379    1.673340    1.089661
H      -0.659260    2.031208   -0.629982
H       1.765765    2.832297    0.375275
H       3.231646    1.011819   -0.730684
H       1.155574   -0.165047   -2.089853
H       2.163988   -2.304912   -1.437017
H       2.263901   -2.956164    0.777176
H       0.108539   -3.272392   -0.092808
H      -1.277024   -1.169767    1.024375
