18

O      -0.067839    1.429692   -0.010488
C       0.066065    0.055566    0.018083
C       1.327458   -0.729105    0.351310
N       0.755542   -1.916250   -0.382300
C      -0.021066   -2.795525    0.515363
C      -0.320437   -2.419383    1.953768
C      -1.312707   -2.091781    0.870258
C      -1.210152   -0.789043    0.104669
C      -0.245763   -0.993064   -1.033684
H       0.624590    1.789199   -0.577443
H       2.183689   -0.341950   -0.215426
H       1.646068   -0.895087    1.382428
H       0.011203   -3.848485    0.257658
H      -0.566478   -3.249807    2.609198
H       0.201683   -1.615741    2.454908
H      -2.274360   -2.594801    0.851943
H      -2.102433   -0.196916   -0.067472
H      -0.420364   -0.968835   -2.101923
