18

O       0.042451    0.036991    0.188477
C      -0.017455    1.223896    0.033707
C      -1.325777    2.045009   -0.163393
N      -0.828630    3.337223   -0.629156
C      -0.929891    4.665067    0.113516
C      -0.241407    4.074444    1.363699
C       0.497822    3.519726    0.096808
C       0.494758    4.961374   -0.469980
C       1.203676    2.197609    0.012587
H      -1.958073    1.566799   -0.916356
H      -1.879330    2.026018    0.787987
H      -1.815240    5.298854    0.052755
H       0.314502    4.764378    2.004145
H      -0.812854    3.368244    1.966845
H       0.547738    5.036910   -1.556089
H       1.090539    5.712704    0.050738
H       1.888822    1.963097    0.829222
H       1.731712    2.064275   -0.938454
