14

N       0.040045    0.849678   -1.254418
C       0.019715    0.091921   -0.238817
O       1.240051   -0.265649    0.329425
C       1.495112   -1.052513    1.405438
N       0.787319   -1.700766    2.224841
C      -0.611505   -1.817544    2.280007
N      -1.152830   -2.529296    3.196970
C      -1.526915   -1.164609    1.336630
C      -1.255970   -0.373064    0.293120
H       1.000618    1.088886   -1.506050
H       2.577726   -1.079096    1.520195
H      -0.411499   -2.924148    3.781734
H      -2.566460   -1.384316    1.556111
H      -2.079674    0.018595   -0.292864
