17

O       0.564887    0.401105   -0.670403
C      -0.356333    0.525385    0.397303
C      -1.577678   -0.346173    0.211105
N      -2.495528   -0.567407    1.470502
C      -3.031057   -1.573870    0.537122
N      -4.121761   -1.279076   -0.048543
C      -3.705536   -0.915311   -1.432775
C      -2.200638   -0.638571   -1.233605
C      -1.726634   -1.717799   -0.320049
H       0.942091   -0.484184   -0.635578
H       0.110434    0.289249    1.367565
H      -0.652348    1.578266    0.428174
H      -1.834130   -1.004733    2.124391
H      -3.868302   -1.681626   -2.205845
H      -4.299374   -0.035757   -1.700792
H      -1.573103   -0.282451   -2.045631
H      -1.055833   -2.556681   -0.461533
