18

C      -0.032952    1.442042    0.208687
N       0.362149    0.069859   -0.092997
C       0.745118   -0.754361    0.950906
C       0.631440   -2.102150    1.143661
C       1.332644   -2.378857    2.369371
N       1.420390   -3.622320    3.009320
C       1.812718   -1.195623    2.837450
N       2.522797   -0.892207    3.994076
O       1.432282   -0.169407    1.951767
H       0.796152    1.957714    0.696632
H      -0.250490    1.957225   -0.729914
H      -0.913821    1.513895    0.865047
H      -0.278160   -0.402077   -0.715279
H       0.110228   -2.805798    0.513943
H       1.655572   -4.372854    2.371346
H       2.100485   -3.589254    3.760293
H       3.396359   -0.406737    3.815092
H       1.993801   -0.351624    4.672852
