19

O      -0.124405   -0.097711   -0.254322
C      -0.027860    1.095697   -0.065704
C       1.298702    1.831462   -0.015848
C       2.509420    0.930279   -0.268879
C       3.818586    1.685125   -0.184806
C       4.489314    1.904243    1.150001
C       5.097813    0.959998    0.141162
C      -1.206315    1.927942    0.134295
C      -2.167870    2.632905    0.300359
H       1.251852    2.654413   -0.742790
H       1.370380    2.325298    0.963290
H       2.504960    0.110743    0.458577
H       2.405468    0.455734   -1.251518
H       3.910467    2.503914   -0.895351
H       4.985039    2.850611    1.335965
H       4.022120    1.469303    2.028168
H       5.037072   -0.104297    0.344088
H       6.007816    1.262887   -0.364796
H      -3.028823    3.239505    0.444864
