18

C      -0.010638    1.431261   -0.171667
C      -0.043748   -0.053322    0.079888
N      -0.105079   -0.681106    1.178928
O       0.000011   -0.725074   -1.097024
C      -0.026543   -2.150974   -1.023212
C       0.106061   -2.636178   -2.478509
N       1.327070   -2.218465   -3.169713
C      -0.009447   -4.100970   -2.509401
N      -0.096792   -5.252501   -2.499945
H       0.898000    1.702695   -0.717778
H      -0.861986    1.727641   -0.791936
H      -0.041977    1.985987    0.766964
H      -0.130987   -0.035312    1.964292
H       0.802213   -2.514372   -0.406948
H      -0.960977   -2.489292   -0.564136
H      -0.743622   -2.228367   -3.041143
H       1.401687   -1.209290   -3.078851
H       2.138198   -2.615626   -2.702492
