14

N      -0.083848    1.233426   -0.057247
C       0.000090   -0.027799    0.031881
C      -1.255422   -0.950594    0.003361
C      -0.581259   -2.273816   -0.071033
C       0.755161   -2.166552    0.018368
N       1.156139   -0.833076    0.167631
N       1.356710   -3.399720    0.049560
C       0.331050   -4.203761   -0.022774
O      -0.890299   -3.602266   -0.082225
H       0.833711    1.680499   -0.019138
H      -1.844670   -0.797118    0.915045
H      -1.891184   -0.682656   -0.845551
H       2.049382   -0.492359   -0.153211
H       0.335829   -5.281143   -0.051663
