12

O       0.034109    0.054355    0.217054
C      -0.034993    1.240021    0.126324
N      -1.164223    2.067261    0.109341
C      -0.751017    3.337862   -0.284024
C       0.582716    3.305495   -0.317894
O       1.147953    4.491659    0.015527
C       0.000134    5.368175   -0.127334
O      -1.177878    4.586643    0.131406
O       1.091564    2.074761   -0.077152
H      -2.049827    1.634839   -0.105932
H       0.073292    6.183502    0.590674
H      -0.026988    5.722216   -1.167695
