20

C       0.027391    1.462108   -0.027721
N      -0.024921    0.012095    0.028186
C      -1.395915   -0.531395    0.043335
C      -1.311210   -1.737626    0.981044
C      -2.588924   -2.458767    1.316705
O      -0.299135   -2.638829    0.398316
C       0.673562   -2.074186    1.271638
C       0.637953   -0.561917    1.188542
C      -0.319425   -1.302503    2.096869
H       1.068924    1.796667   -0.062207
H      -0.461233    1.808702   -0.944052
H      -0.467990    1.959967    0.828175
H      -2.121533    0.201578    0.438267
H      -1.715115   -0.832456   -0.960441
H      -3.064523   -2.837020    0.406059
H      -2.384840   -3.308206    1.973337
H      -3.291700   -1.786459    1.819861
H       1.539106   -2.673495    1.531040
H       1.476428   -0.008041    1.594477
H      -0.500119   -1.202617    3.159021
