18

O       0.136725    1.381194    0.120568
C      -0.004038    0.003064   -0.087744
C      -1.458116   -0.406334    0.128218
O      -2.336594    0.396434    0.313199
C      -1.714804   -1.911849    0.095604
C      -3.200376   -2.254943   -0.010738
C      -3.440706   -3.775180    0.055882
C      -4.854905   -4.126777   -0.057637
N      -5.975439   -4.392890   -0.150324
H       1.051781    1.619605   -0.053868
H       0.266444   -0.304552   -1.114164
H       0.624252   -0.601746    0.589920
H      -1.139961   -2.360612   -0.725894
H      -1.286404   -2.335469    1.016210
H      -3.747750   -1.754923    0.791885
H      -3.606667   -1.860714   -0.946995
H      -2.894494   -4.286701   -0.745924
H      -3.059249   -4.181063    1.000628
