15

N       0.074762   -1.143259    0.153931
C       0.078440    0.008247    0.047774
C       0.055367    1.425296   -0.130900
C      -0.713502    2.236606   -1.194594
C       0.467179    3.244877   -1.155128
C       1.069427    3.936413   -2.314283
N       0.463966    4.693953   -1.198792
C       1.154638    2.423396   -0.081797
O       0.234337    2.276861    1.004114
H      -0.813578    1.723185   -2.152852
H      -1.685798    2.596055   -0.850537
H       2.148122    4.036992   -2.398715
H       0.542914    3.877545   -3.263689
H      -0.455977    5.044177   -1.454264
H       2.208465    2.293565    0.133276
