16

C      -0.013877    1.497406    0.015929
C       1.549933    1.799367   -0.108167
C       1.923539    0.338168   -0.124132
N       2.966683   -0.749833   -0.105537
C       1.616669   -1.478028   -0.066589
C       1.024366   -0.417556    0.880685
N      -0.166605   -0.008160    0.048752
C       0.875052   -0.446968   -0.953753
H      -0.435253    1.918110    0.932317
H      -0.574063    1.895454   -0.833931
H       1.798665    2.340012   -1.024873
H       1.938490    2.353924    0.749351
H       3.386254   -0.851238   -1.034614
H       1.556394   -2.565225   -0.034162
H       1.053857   -0.368544    1.968949
H       0.715119   -0.436219   -2.033954
