18

C       0.258896    1.217016    0.149694
N       0.043570   -0.202442   -0.099438
C       0.294531   -1.075892    1.037668
C      -0.346687   -0.584033   -1.343260
O      -0.503673    0.188765   -2.280511
C      -0.642473   -2.063925   -1.638163
O      -1.119377   -2.848536   -0.845366
C      -0.394738   -2.489468   -3.073211
O      -0.696416   -3.840793   -3.259221
H       1.293728    1.393266    0.466027
H       0.055619    1.768138   -0.766272
H      -0.408672    1.565768    0.946566
H      -0.419852   -0.865930    1.843249
H       0.197931   -2.120437    0.761351
H       1.304037   -0.889966    1.423656
H      -0.990405   -1.833566   -3.723870
H       0.658660   -2.276673   -3.317565
H      -1.067078   -4.146913   -2.417480
