17

C      -0.043126    1.549719    0.063842
C       0.007698    0.012707   -0.012639
C       0.687913   -0.477423   -1.205673
C       1.254798   -0.859706   -2.200425
C       1.913991   -1.337722   -3.357100
C       2.473959   -0.594747   -4.360589
O       3.017718   -1.395446   -5.307474
C       2.807349   -2.681117   -4.911991
C       2.141215   -2.714436   -3.733374
H       0.965461    1.971658    0.075478
H      -0.572292    1.964250   -0.798457
H      -0.561352    1.868650    0.972988
H       0.509208   -0.381640    0.881066
H      -1.013901   -0.388896    0.015665
H       2.556344    0.466203   -4.525562
H       3.189044   -3.441244   -5.573001
H       1.836916   -3.587525   -3.179262
