13

O      -0.117963    1.337263   -0.081828
N       0.012329   -0.043053    0.069318
C      -1.106286   -0.624402   -0.007200
C      -2.586034   -0.237929   -0.092361
C      -2.891478   -1.739793    0.094986
O      -2.268887   -2.438465   -0.971790
C      -1.438635   -2.080466    0.156619
C      -0.732772   -3.110566    0.849137
N      -0.148898   -3.923884    1.426413
H       0.791990    1.643288    0.008778
H      -2.887869    0.392879    0.748263
H      -2.938781    0.193736   -1.030511
H      -3.717458   -2.217488    0.606642
