23

C       0.073131    1.635391   -0.094735
C       0.066564    0.107037   -0.079050
C       0.858145   -0.562782   -1.224183
C       1.001213   -2.025144   -0.768876
C       1.215204   -1.934128    0.747745
C       0.870472   -3.183666    1.533377
O       2.569971   -1.481500    1.047052
C       2.092745   -0.226357    1.568656
C       0.634119   -0.553745    1.191892
H       1.090291    2.034876   -0.021572
H      -0.362512    2.017782   -1.023907
H      -0.508134    2.047085    0.737501
H      -0.977830   -0.227351   -0.162759
H       0.362758   -0.458259   -2.193851
H       1.848993   -0.102077   -1.313866
H       0.078551   -2.581684   -0.976019
H       1.827461   -2.557062   -1.249534
H       1.491908   -4.024270    1.205988
H       1.045742   -3.031706    2.602490
H      -0.179666   -3.458999    1.388121
H       2.280925   -0.134430    2.646411
H       2.554496    0.629939    1.061716
H      -0.069677   -0.551334    2.026637
