19

C      -0.210674    1.037916   -1.808242
C      -0.035757   -0.163629   -0.903551
C       1.318378   -0.642041   -0.390868
C       2.579046    0.082053   -0.670728
O       3.641789   -0.472663   -0.821356
C       0.251143   -0.059797    0.578149
C       0.465601    1.285683    1.261969
C      -0.380339   -1.037686    1.426663
C      -0.912326   -1.839279    2.148873
H       0.427638    1.881297   -1.539605
H       0.019055    0.768683   -2.844373
H      -1.248429    1.385654   -1.776867
H      -0.692971   -0.989014   -1.161050
H       1.461908   -1.714877   -0.330365
H       2.507297    1.188191   -0.742903
H       0.912014    2.029596    0.600875
H      -0.493938    1.677780    1.611720
H       1.117895    1.170676    2.132165
H      -1.379816   -2.550779    2.783672
