20

C       0.244192    1.359590   -0.480402
C       1.411693    1.956567    0.344427
N       2.117841    0.850289    1.024723
C       2.515167   -0.234659    0.109375
C       3.474257   -1.212660    0.752931
O       2.866264   -1.617890    1.978345
C       1.460170   -1.402643    1.921723
C       1.243513   -0.342373    0.868209
C      -0.082282    0.041568    0.253991
H      -0.611267    2.036518   -0.539738
H       0.558000    1.150087   -1.507432
H       2.111164    2.537771   -0.265020
H       1.030331    2.619322    1.128639
H       2.554074   -0.060992   -0.961834
H       3.633072   -2.071933    0.081001
H       4.447136   -0.774980    0.999987
H       0.921493   -2.323540    1.641197
H       1.131278   -1.098650    2.921810
H      -0.820555    0.206389    1.048514
H      -0.486964   -0.726338   -0.412397
