16

C      -0.041505    1.534962    0.018754
C      -0.043895    0.001812    0.013035
O       0.667485   -0.530767    1.123563
C      -1.436386   -0.554075   -0.046814
N      -2.021538   -1.190029   -1.016621
C      -3.285931   -1.466614   -0.533676
O      -4.192961   -2.126866   -1.274569
C      -3.415872   -0.984736    0.726902
O      -2.212877   -0.385026    1.043342
H       0.988179    1.896731    0.075459
H      -0.508212    1.931165   -0.888277
H      -0.596523    1.917695    0.881812
H       0.475110   -0.366740   -0.875491
H       0.181915   -0.292433    1.921576
H      -3.765166   -2.336231   -2.113747
H      -4.188053   -0.975531    1.472703
