22

C       0.013525    1.529433    0.027784
C      -0.082914    0.017074    0.015909
C      -0.869154   -0.664176    1.079666
N       0.593874   -0.641951    1.149941
C       1.302013   -1.917954    0.959036
C       1.585229   -2.304817   -0.495976
O       2.012810   -3.659655   -0.459171
C       0.346785   -2.091254   -1.365879
C      -0.014562   -0.601441   -1.376700
H       0.962102    1.863451   -0.408177
H      -0.799663    1.976398   -0.556341
H      -0.041340    1.911331    1.049844
H      -1.386557   -0.080978    1.839027
H      -1.353870   -1.608622    0.837470
H       2.251228   -1.865078    1.502834
H       0.725382   -2.735479    1.408305
H       2.393133   -1.661424   -0.885394
H       2.263380   -3.917092   -1.352099
H       0.541946   -2.431426   -2.390632
H      -0.474614   -2.707555   -0.981813
H      -0.961952   -0.431082   -1.901924
H       0.751230   -0.061230   -1.949994
