17

C      -0.052110    1.574628    0.045571
C      -0.029894    0.073705    0.045718
C       0.910190   -0.760641   -0.914766
C       1.971747   -0.852142    0.200909
C       0.727303   -0.892214    1.101557
C      -0.240888   -1.974808    0.465739
O       0.300852   -2.067864   -0.862917
C      -1.239634   -0.815960    0.290160
O      -2.396516   -0.618205    0.522974
H       0.954237    1.998234    0.130114
H      -0.493595    1.953010   -0.882730
H      -0.654995    1.953114    0.876697
H       1.118376   -0.470492   -1.943181
H       2.647584   -1.709727    0.175508
H       2.527358    0.078356    0.335501
H       0.708251   -0.740142    2.178190
H      -0.466457   -2.947993    0.892948
