22

C      -0.428325    1.462649   -0.103805
C      -0.077731   -0.021320   -0.011788
C       1.114866   -0.451437   -0.911834
C       2.051463   -0.512654    0.345847
C       2.944758   -1.749373    0.490194
C       2.858976    0.698085    0.474582
N       3.501964    1.654427    0.580060
C       0.749992   -0.467114    1.238767
C       0.729904    0.349597    2.520911
H       0.454665    2.101106   -0.002158
H      -0.883755    1.682204   -1.075432
H      -1.143922    1.753262    0.672356
H      -0.985947   -0.612569   -0.161175
H       0.991444   -1.447432   -1.344480
H       1.410434    0.242685   -1.701281
H       3.728035   -1.761734   -0.273738
H       3.429400   -1.775125    1.471013
H       2.341125   -2.655046    0.379248
H       0.501025   -1.508234    1.472207
H       1.010264    1.391898    2.348708
H      -0.269658    0.335418    2.968476
H       1.427326   -0.062916    3.258055
