16

C      -0.040756    1.551788    0.059930
C      -0.057057    0.029884   -0.079707
N      -1.411662   -0.513266   -0.073244
N      -2.087542   -0.613395    1.074234
C      -3.291629   -1.086445    0.743240
C      -3.404967   -1.293751   -0.638181
C      -2.169117   -0.910350   -1.141990
C      -1.679752   -0.897427   -2.468512
N      -1.266649   -0.881366   -3.550914
H       0.992441    1.910042    0.081905
H      -0.551769    2.028514   -0.781306
H      -0.534626    1.853618    0.986669
H       0.413114   -0.285585   -1.014128
H       0.476467   -0.442586    0.748445
H      -4.027252   -1.264820    1.512868
H      -4.241638   -1.669854   -1.202721
