17

C       0.121522    1.405830   -0.023133
N      -0.150557   -0.020681   -0.049061
C       0.065961   -0.761029    1.181612
C      -0.052504   -0.658165   -1.248032
N       0.045770   -0.108605   -2.431630
C       0.038935   -1.191685   -3.292011
O       0.121389   -1.011512   -4.623972
C      -0.050764   -2.352359   -2.607142
O      -0.104983   -2.001628   -1.252257
H       1.195185    1.623656    0.080913
H      -0.232940    1.855622   -0.950198
H      -0.407181    1.854449    0.823052
H      -0.451044   -0.248467    1.997936
H      -0.341347   -1.767077    1.086801
H       1.132499   -0.838199    1.443445
H       0.170654   -0.058656   -4.765235
H      -0.073638   -3.398246   -2.843388
