13

N      -0.037978    1.438423    0.141880
C      -0.027807    0.069736    0.034244
C      -1.158410   -0.724351    0.048631
F      -2.359244   -0.136786    0.112325
C      -1.042070   -2.110201   -0.009563
N       0.128187   -2.731291   -0.085602
N       1.239870   -1.989429   -0.110985
C       1.168775   -0.676211   -0.054762
O       2.322520    0.029447   -0.092121
H       0.796000    1.906659   -0.176393
H      -0.903545    1.896727   -0.096294
H      -1.930898   -2.732175    0.004709
H       3.032682   -0.624792   -0.164798
