16

O      -0.009406    1.424737    0.071414
C       0.016738    0.017592   -0.049130
C      -1.380482   -0.504527   -0.024214
C      -2.507793    0.187231    0.094195
C      -3.680468   -0.765848    0.091329
O      -3.123312   -2.050828   -0.154623
C      -1.697210   -1.973967   -0.118818
C      -4.413474   -0.750160    1.380102
N      -4.987759   -0.722762    2.382253
H       0.896964    1.744983    0.080591
H       0.504858   -0.302295   -0.986744
H       0.587703   -0.452829    0.770737
H      -2.607814    1.256615    0.203556
H      -4.410425   -0.539311   -0.699239
H      -1.297577   -2.441878   -1.029463
H      -1.304833   -2.537943    0.741995
