23

C      -0.190559    1.583677    0.223894
C      -0.063840    0.067135    0.128957
O       0.449232   -0.216965   -1.177638
C       0.147413   -1.498370   -1.712342
C       0.789841   -2.682452   -0.984758
C       0.217321   -2.932535    0.419808
C       0.716453   -1.992331    1.534542
C       0.912551   -0.497804    1.191081
O       2.245027   -0.234014    0.769234
H       0.799805    2.045110    0.177607
H      -0.796570    1.968737   -0.599881
H      -0.660108    1.869586    1.169807
H      -1.054521   -0.397721    0.241367
H      -0.946297   -1.635697   -1.737975
H       0.499541   -1.459507   -2.748288
H       0.612409   -3.568817   -1.607419
H       1.876756   -2.542798   -0.941381
H      -0.877951   -2.880693    0.354172
H       0.441759   -3.961719    0.722003
H       0.021542   -2.070702    2.380210
H       1.688319   -2.338039    1.902335
H       0.767318    0.070779    2.118706
H       2.206165   -0.197800   -0.196769
