11

O       0.058481   -0.005443    0.151475
C       0.228341    1.128559   -0.135188
O       0.574681    2.071439    0.826767
C       0.791257    3.326887    0.409743
C       1.784331    3.916472   -0.249614
O       1.477319    5.260492   -0.371992
C       0.269817    5.469393    0.236905
O      -0.301292    6.502646    0.327624
O      -0.171418    4.257934    0.725434
H       0.161549    1.585342   -1.136759
H       2.718424    3.568864   -0.651003
