21

C       0.031962    1.485993    0.200978
O       0.303727    0.119336   -0.009912
C       0.708211   -0.606186    1.144018
C      -0.400047   -0.751651    2.186408
C       1.179150   -1.984765    0.635485
O       0.105541   -2.809664    0.284971
C       2.125966   -1.835801   -0.565106
C       3.367194   -0.991079   -0.412709
O       1.850722   -2.411171   -1.595447
H       0.870134    1.995573    0.703226
H      -0.114134    1.937069   -0.783626
H      -0.876762    1.648993    0.796043
H       1.574730   -0.097773    1.603185
H      -0.042766   -1.344409    3.034401
H      -0.716247    0.220844    2.572404
H      -1.256271   -1.263230    1.743230
H       1.758252   -2.449988    1.452865
H       0.230306   -2.989302   -0.662106
H       3.851470   -1.156291    0.554427
H       4.062492   -1.207868   -1.224659
H       3.079080    0.064401   -0.464098
