17

O      -0.507745    1.620860    0.248496
C      -0.631088    0.379823   -0.382194
C      -0.277505   -0.819409    0.482456
O       0.075500   -0.537168    1.805914
C      -1.725919   -0.534807    0.133956
O      -2.481390    0.016990    1.177211
C      -2.561437   -1.423218   -0.772872
C      -1.820764   -1.985440   -1.895653
C      -1.199014   -2.444947   -2.815985
H      -1.357392    1.776597    0.689549
H      -0.366211    0.379338   -1.434396
H       0.228021   -1.675896    0.047902
H       0.358329    0.391274    1.806605
H      -1.988240   -0.186680    1.989118
H      -2.986922   -2.232253   -0.165083
H      -3.412102   -0.837458   -1.145328
H      -0.660248   -2.856603   -3.633426
