19

C      -0.000516    1.528281   -0.022157
C      -0.018957   -0.015998   -0.003978
C       0.769235   -0.526739    1.222080
C      -1.467512   -0.528090    0.046289
C       0.675854   -0.508926   -1.248397
N       0.104485   -1.265001   -2.148827
O       1.113028   -1.467914   -3.105436
C       2.176669   -0.801409   -2.660185
N       1.994533   -0.189390   -1.537046
H       1.022595    1.906995   -0.087417
H      -0.566021    1.918827   -0.874063
H      -0.456457    1.915923    0.894421
H       0.314957   -0.143772    2.141446
H       0.759711   -1.620269    1.268731
H       1.809726   -0.194444    1.184967
H      -2.042990   -0.182647   -0.816653
H      -1.504355   -1.620687    0.054064
H      -1.954759   -0.160515    0.954787
H       3.069305   -0.835333   -3.268017
