20

C      -0.187519    1.612613    0.801533
C      -0.118276    0.137585    0.395061
C      -1.465566   -0.475202   -0.037426
C      -2.041296    0.214330   -1.283836
C      -1.284642   -1.992587   -0.239178
C      -2.565222   -2.801084   -0.309028
F      -3.285600   -2.554808   -1.418447
F      -2.295389   -4.118067   -0.307045
F      -3.367550   -2.558348    0.742252
H       0.782088    1.956047    1.174962
H      -0.461945    2.259288   -0.036817
H      -0.923860    1.768286    1.598067
H       0.609154    0.014384   -0.419550
H       0.272949   -0.442410    1.240671
H      -2.173304   -0.340253    0.791252
H      -2.206839    1.279484   -1.103210
H      -1.349811    0.123292   -2.130632
H      -2.994274   -0.223551   -1.584515
H      -0.718403   -2.202912   -1.153269
H      -0.715583   -2.414039    0.595952
