15

C      -0.016096    1.502865    0.062387
C      -0.006139    0.013077   -0.040494
C      -0.082481   -0.812312   -1.143206
C      -0.026483   -2.163713   -0.689040
N      -0.152270   -3.306565   -1.507380
C       0.083910   -2.125419    0.683077
N       0.088561   -0.793298    1.061089
H       0.904700    1.895745    0.512540
H      -0.108635    1.943147   -0.933029
H      -0.855674    1.871771    0.665281
H      -0.178576   -0.484589   -2.168042
H       0.324371   -3.188109   -2.393108
H       0.213881   -4.137701   -1.059714
H       0.148527   -2.916671    1.412108
H       0.164577   -0.466899    2.007701
