23

C      -0.057326    1.573757   -0.236621
C      -0.025152    0.043858   -0.201504
O       0.994148   -0.405360    0.690561
C      -1.396408   -0.584214    0.150847
C      -2.515281   -0.042898   -0.718748
C      -2.934312   -0.932984   -1.616960
C      -2.209572   -2.248054   -1.480720
C      -1.527444   -2.127450   -0.091909
C      -0.283556   -3.002075    0.064843
H       0.954909    1.957762   -0.389076
H      -0.696390    1.948959   -1.040447
H      -0.436771    1.978512    0.711040
H       0.289859   -0.323625   -1.185475
H       0.772254   -0.076977    1.569125
H      -1.570695   -0.351682    1.213122
H      -2.885045    0.972467   -0.630234
H      -3.692651   -0.750138   -2.370827
H      -2.875960   -3.116775   -1.535755
H      -1.472310   -2.378413   -2.287261
H      -2.269831   -2.469389    0.640569
H       0.499923   -2.734678   -0.649996
H       0.150584   -2.918472    1.063524
H      -0.547227   -4.051860   -0.108331
