23

C      -0.031326    1.402774   -0.375111
C      -0.055052   -0.073921    0.046510
C       0.789912   -0.314324    1.307052
C      -1.501141   -0.588862    0.187289
C      -2.279621    0.004168    1.354502
O      -2.235330   -0.366757   -1.062158
C      -2.318636   -1.773793   -1.341263
C      -1.678138   -2.129145    0.014862
O      -0.475831   -2.863624   -0.004002
H       0.989872    1.706679   -0.627070
H      -0.666194    1.566879   -1.249041
H      -0.377348    2.061472    0.429274
H       0.391916   -0.658131   -0.765562
H       0.446204    0.299502    2.146782
H       0.764088   -1.364272    1.607737
H       1.833608   -0.044538    1.114847
H      -2.303186    1.095991    1.300526
H      -3.313176   -0.353026    1.332669
H      -1.835244   -0.284359    2.311971
H      -3.352064   -2.102456   -1.507095
H      -1.699426   -2.070579   -2.198346
H      -2.386054   -2.551149    0.739201
H      -0.690437   -3.798110   -0.080493
