18

C      -0.017449    1.391756    0.008974
O       0.004779   -0.020590    0.002926
C      -1.187709   -0.660860    0.011717
C      -1.392627   -2.019471    0.010332
C      -2.806129   -2.205899    0.021617
O      -3.367633   -3.442332    0.023412
C      -4.778704   -3.461123    0.034913
C      -3.420555   -0.974743    0.029656
N      -2.397791   -0.024222    0.023202
H       1.023765    1.716894    0.001278
H      -0.520909    1.795063   -0.881256
H      -0.505461    1.787606    0.911058
H      -0.634903   -2.784197    0.002211
H      -5.192408   -2.962240   -0.853102
H      -5.082323   -4.509568    0.034842
H      -5.177811   -2.966604    0.932006
H      -4.452988   -0.676563    0.039098
H      -2.542453    0.967632    0.027011
