20

C       0.668055    1.370825    0.627489
C       1.003469   -0.086111    0.301939
C       0.424430   -0.544804   -1.055812
C       1.079316    0.156715   -2.165957
N       1.611638    0.704513   -3.033807
C       0.469009   -2.066003   -1.307188
C      -0.288998   -2.527506   -2.531897
C       1.562593   -2.885070   -0.767472
O       0.272908   -2.863298   -0.138717
H       1.068410    2.052753   -0.129234
H      -0.414958    1.526422    0.681992
H       1.093953    1.655179    1.593755
H       2.090188   -0.219320    0.295417
H       0.597831   -0.756820    1.063672
H      -0.636687   -0.257324   -1.081632
H       0.123750   -2.077963   -3.439873
H      -0.237505   -3.614694   -2.621900
H      -1.343772   -2.240070   -2.459938
H       1.819850   -3.817536   -1.266862
H       2.366833   -2.431557   -0.193392
