17

C       0.137379    1.374632   -0.311431
C       0.216392   -0.143332   -0.300369
O       1.279894   -0.720820   -0.388561
C      -1.092910   -0.841833   -0.174793
C      -1.422497   -2.184308   -0.868605
O      -0.380216   -2.952369   -1.373398
C       0.388016   -3.444207   -0.276969
O      -0.173916   -2.925283    0.926980
C      -1.290820   -2.166893    0.597754
H       1.139752    1.793581   -0.405077
H      -0.486422    1.718041   -1.144768
H      -0.331325    1.739036    0.610002
H      -1.957327   -0.186801   -0.104692
H      -2.347741   -2.275504   -1.425041
H       0.340359   -4.542379   -0.259757
H       1.412906   -3.082108   -0.373244
H      -2.102114   -2.242897    1.311947
