16

C      -0.062172    1.556009    0.145697
C       0.074599    0.070346    0.068190
N      -0.848050   -0.893699    0.696753
C       0.605784   -0.942969    1.006867
C       1.310902   -1.687931   -0.175432
O       0.346870   -2.062203   -1.147867
C       0.787088   -0.696014   -1.134250
C       1.330257   -0.097306   -2.299941
C       1.774607    0.463414   -3.267440
H       0.860624    2.050037   -0.174866
H      -0.871294    1.911369   -0.502477
H      -0.280883    1.875007    1.170203
H      -1.292937   -0.403403    1.474290
H       0.989992   -0.833484    2.012154
H       2.257883   -2.213538   -0.156362
H       2.169639    0.942928   -4.128729
