17

O       0.136678    1.368712   -0.142721
C       0.078190   -0.032733   -0.044245
C       1.125767   -0.746671   -0.845002
C       1.216005   -0.721017    0.670193
C      -1.308380   -0.605771    0.037713
C      -2.417978    0.131336    0.747351
C      -2.433752    0.003339   -0.757062
H      -0.010042    1.730090    0.738107
H       0.856064   -1.676500   -1.333726
H       1.822190   -0.124470   -1.394647
H       1.979236   -0.087277    1.108581
H       1.009650   -1.633411    1.219843
H      -1.319705   -1.687539    0.138256
H      -3.126725   -0.446323    1.330182
H      -2.205185    1.113280    1.156658
H      -2.201506    0.895478   -1.326987
H      -3.161082   -0.657324   -1.215358
