20

C       0.205674    1.510205    0.243919
C       0.018644    0.001279    0.008392
C       0.576926   -0.787904    1.214195
C      -1.483695   -0.317348   -0.164480
C       0.760040   -0.394766   -1.234827
C       1.523471    0.242617   -2.158102
N       1.960362   -0.664381   -3.120457
C       1.450008   -1.786755   -2.740840
O       0.709004   -1.718203   -1.610192
H       1.261749    1.765342    0.375986
H      -0.186513    2.096131   -0.593163
H      -0.329818    1.814994    1.148149
H       0.032708   -0.520626    2.125973
H       0.475129   -1.865331    1.058884
H       1.636979   -0.565935    1.371302
H      -1.909869    0.244196   -1.001570
H      -1.639261   -1.382443   -0.356068
H      -2.034309   -0.048893    0.743106
H       1.793509    1.284751   -2.206220
H       1.538228   -2.757089   -3.203921
