19

C      -0.236122    1.567228    0.268081
C      -0.043674    0.106682    0.034022
C       0.106759   -0.649186   -1.106244
C       0.152945   -0.206210   -2.534619
C       1.560698   -0.326372   -3.140608
O       1.607105    0.074930   -4.501144
N       0.255846   -1.986334   -0.781351
C       0.194733   -2.042206    0.525806
N       0.014186   -0.806520    1.071817
H       0.591287    2.008651    0.837611
H      -0.293568    2.095387   -0.685950
H      -1.161816    1.778596    0.817759
H      -0.533624   -0.828099   -3.124858
H      -0.187254    0.829604   -2.635411
H       2.249957    0.338530   -2.609220
H       1.925995   -1.354066   -3.004136
H       1.080783   -0.552500   -5.006860
H       0.269317   -2.934543    1.129728
H      -0.071386   -0.592144    2.051359
