14

O       0.778954    0.951714   -0.109844
C       0.202300   -0.290600   -0.450992
C      -1.271544   -0.311513   -0.103439
C      -1.889624   -1.446126    0.621174
O      -1.564917   -0.241464    1.299086
C      -2.167849    0.531708   -0.968412
O      -1.894421    0.862960   -2.092337
C      -3.456364    0.925342   -0.356245
N      -4.486092    1.228131    0.073151
H       0.680722    1.061673    0.843067
H       0.324593   -0.409073   -1.530360
H       0.699894   -1.131133    0.053301
H      -2.953574   -1.648136    0.514439
H      -1.261628   -2.305401    0.849218
