19

C       0.142828    1.362283   -1.113669
C      -0.001619    0.262224   -0.085192
C       0.810342   -0.988958   -0.245750
N       1.117843   -0.050276    0.831149
C      -1.373233    0.136748    0.522861
O      -2.337892    0.648521   -0.016169
C      -1.531141   -0.638825    1.791834
C      -2.388864    0.004056    2.840596
N      -2.882694   -1.142991    2.093013
H       1.134674    1.332009   -1.575244
H      -0.612992    1.256965   -1.895003
H       0.002783    2.346066   -0.654388
H       0.415648   -1.948945    0.075197
H       1.458364   -1.033030   -1.117303
H       1.920779    0.523858    0.586064
H      -0.706001   -1.261876    2.111227
H      -2.152856   -0.179477    3.884680
H      -2.791194    0.986418    2.610002
H      -3.491557   -0.795548    1.350272
