17

C       0.204956    1.594910   -0.104093
C       0.082411    0.089845   -0.019861
O      -1.250320   -0.362396    0.206777
C       0.654415   -0.794582   -1.164517
O       1.856751   -0.253722   -1.739967
C       2.695916   -1.094990   -0.915674
C       1.473744   -1.662727   -0.155713
C       0.995726   -0.720875    0.956225
O       1.150799   -0.675166    2.142669
H       1.197334    1.879790   -0.461579
H      -0.545457    1.991002   -0.795166
H       0.044796    2.046299    0.881038
H      -1.480613   -0.143819    1.117821
H      -0.061070   -1.171475   -1.896415
H       3.219290   -1.845261   -1.519244
H       3.427459   -0.524714   -0.332813
H       1.401306   -2.738049   -0.004941
