18

N       0.099547   -1.144217   -0.071600
C       0.060484    0.012279   -0.023795
C       0.004182    1.433469    0.052910
C       0.271638    2.320542   -1.145175
C       1.172397    2.451440    0.042946
C       0.480653    3.231186    1.143285
C       1.142997    3.840657    2.338959
C       0.447166    4.721158    1.322074
C      -0.694471    2.230763    1.174695
H       0.692926    1.810526   -2.004598
H      -0.440576    3.106422   -1.382448
H       2.231392    2.228755   -0.007862
H       0.673968    3.704678    3.308192
H       2.227887    3.856689    2.368147
H       1.061002    5.331863    0.667991
H      -0.495494    5.177831    1.605859
H      -1.689361    2.611927    0.924434
H      -0.746729    1.671075    2.110876
