16

C      -0.026319    1.528172   -0.018957
C       0.000839   -0.010518    0.009663
N       0.765652   -0.552501   -1.130303
C       1.579919   -1.694686   -0.684286
C       1.625351   -1.506604    0.806631
C       0.754772   -0.584938    1.198990
C      -1.396940   -0.519086    0.022977
N      -2.479794   -0.925326   -0.004764
H       1.001942    1.895936   -0.009164
H      -0.518331    1.884927   -0.927858
H      -0.566563    1.928177    0.844361
H       0.173676   -0.770987   -1.920933
H       1.145238   -2.676135   -0.938410
H       2.576999   -1.660253   -1.143616
H       2.284351   -2.075857    1.450035
H       0.549777   -0.259058    2.210060
