19

C      -0.083175    1.501494    0.021555
C       0.027675   -0.018914   -0.000686
C       1.026538   -0.582629   -1.065880
C       1.985934   -1.298324   -0.097555
C       1.046417   -2.073781    0.845528
C       0.749407   -0.606318    1.255339
O       2.159225   -0.297365    0.957504
C       0.280733   -0.233040    2.563594
C      -0.141574    0.066369    3.648570
H       0.902354    1.948855    0.181158
H      -0.480017    1.876306   -0.927402
H      -0.746863    1.838516    0.823822
H      -0.965612   -0.468069   -0.100246
H       0.561045   -1.260920   -1.786127
H       1.534465    0.215117   -1.613131
H       2.922875   -1.705244   -0.475329
H       0.235305   -2.674586    0.426770
H       1.586231   -2.605291    1.628585
H      -0.506259    0.332020    4.610077
