15

O      -0.005099    1.442852    0.007019
C      -0.000505    0.028018    0.001927
C      -1.414140   -0.474810    0.012686
C      -2.511459    0.331555    0.024161
N      -3.814029   -0.114375    0.033927
C      -3.969206   -1.398912    0.031709
N      -2.942379   -2.287349    0.020690
C      -1.584392   -1.915597    0.010381
O      -0.703396   -2.758693    0.000221
H       0.907358    1.743666    0.000545
H       0.512995   -0.379619   -0.883852
H       0.528622   -0.386028    0.875421
H      -2.383715    1.407982    0.026032
H      -4.968369   -1.827501    0.038877
H      -3.120040   -3.283562    0.019413
