20

C      -0.179271    1.457534    0.019348
N      -0.073150    0.015667   -0.010692
C       0.146540   -0.746475   -1.128883
C       0.293818   -2.057047   -0.739973
C       0.163081   -2.103300    0.681842
C      -0.057289   -0.805262    1.092697
C       0.231417   -3.287818    1.564734
C      -0.317955   -4.629756    1.122965
C       1.167567   -4.439991    1.259893
H       0.785484    1.936096    0.227314
H      -0.544188    1.816131   -0.945891
H      -0.892008    1.763227    0.790127
H       0.178556   -0.289421   -2.105651
H       0.458685   -2.893089   -1.403158
H      -0.206065   -0.399696    2.081607
H       0.104452   -3.057418    2.618567
H      -0.831684   -5.240313    1.857843
H      -0.736637   -4.687126    0.124013
H       1.759959   -4.368350    0.354089
H       1.676533   -4.920014    2.088886
