21

C       0.002889    1.489546    0.007104
C       0.000205   -0.016772   -0.000254
C       0.987296   -0.868787   -0.782320
C       0.259818   -2.017743   -1.465802
C      -1.080529   -2.087414   -0.746045
C      -1.050557   -2.095009    0.766814
C       0.317262   -2.032322    1.433609
C       1.017346   -0.876440    0.733445
C      -1.307299   -0.798064    0.021664
H       1.025403    1.880202   -0.008119
H      -0.518968    1.897278   -0.866859
H      -0.489217    1.888458    0.902137
H       1.822512   -0.401557   -1.294842
H       0.109323   -1.794415   -2.528982
H       0.816162   -2.962404   -1.410507
H      -1.908842   -2.592088   -1.232110
H      -1.859091   -2.604673    1.280206
H       0.209041   -1.819759    2.504115
H       0.870774   -2.976272    1.346789
H       1.872321   -0.414245    1.217144
H      -2.259233   -0.282246    0.043118
