15

C      -0.305808    1.479591    0.090510
C       0.037930   -0.000019   -0.025528
N       0.896763   -0.404232   -1.162247
C       1.989733   -0.964421   -0.355227
C       1.185338   -0.516406    0.880627
O       1.368610   -0.523478    2.057606
C       0.574424   -0.747227   -2.435460
O       1.299527   -1.373656   -3.177852
H       0.591600    2.097760   -0.000296
H      -1.012262    1.779502   -0.688847
H      -0.765925    1.672199    1.064202
H      -0.865612   -0.618622    0.067123
H       2.114018   -2.048401   -0.462269
H       2.962753   -0.480008   -0.488035
H      -0.426033   -0.370661   -2.729432
