19

C      -0.018266    1.587786    0.026613
C       0.161460    0.098658    0.000185
C      -0.691793   -0.835585    0.811513
C       0.809882   -0.724090    1.114838
C       1.703827   -1.729604    0.391022
C       1.201910   -1.659276   -1.066266
O       0.630267   -0.364148   -1.240242
C       1.249302   -0.154052    2.348894
C       1.624631    0.329601    3.385665
H       0.902955    2.085811   -0.289675
H      -0.822944    1.890813   -0.650739
H      -0.266142    1.923133    1.036235
H      -1.356231   -0.389101    1.542313
H      -1.060093   -1.754991    0.368882
H       2.743863   -1.400045    0.470743
H       1.636801   -2.742295    0.798510
H       1.998817   -1.774570   -1.805423
H       0.449546   -2.436169   -1.259711
H       1.955051    0.752265    4.301653
