14

N      -0.065060    1.320697   -0.031184
C      -0.024395    0.063796    0.016810
O      -1.175615   -0.647019   -0.100054
C      -1.050691   -2.046279   -0.142262
C      -2.453234   -2.682656   -0.084144
N      -2.699636   -3.183914   -1.444160
C      -1.615075   -3.012470   -2.070024
O      -0.546924   -2.457756   -1.422622
H       0.869321    1.705667    0.091738
H       0.864568   -0.564083    0.157282
H      -0.338516   -2.389805    0.613823
H      -2.501138   -3.510180    0.630241
H      -3.198143   -1.935915    0.200447
H      -1.423911   -3.277414   -3.103069
