19

C      -0.041558    1.376768    0.093829
N       0.018759   -0.069530    0.075660
C       0.546991   -0.615644   -0.923850
O       0.627090   -1.966841   -0.987370
C       1.238059   -2.567184   -2.145645
C       0.444600   -2.262783   -3.429204
C       2.724199   -2.184490   -2.266523
C       1.149320   -4.018368   -1.874281
N       1.107324   -5.160974   -1.715337
H       0.481947    1.753589    0.979518
H       0.395584    1.856762   -0.797477
H      -1.085372    1.698255    0.181019
H       0.964955   -0.073469   -1.782098
H       0.527159   -1.205058   -3.690639
H       0.838768   -2.852238   -4.260607
H      -0.608500   -2.514304   -3.287516
H       3.240309   -2.383283   -1.325004
H       3.197690   -2.770060   -3.058337
H       2.829398   -1.125582   -2.514768
