19

C       0.026209    1.493850    0.119330
C       0.021173   -0.003504    0.004232
C       0.894708   -0.817203   -0.998597
C       0.719311   -1.839191    0.150801
O       0.753279   -0.706017    1.083095
C      -0.774352   -2.199410    0.080910
C      -1.689218   -1.633676    1.145205
O      -1.373745   -1.401036    2.475246
C      -1.323884   -0.763312   -0.037125
H       1.047852    1.880501    0.161969
H      -0.479499    1.938310   -0.744122
H      -0.507022    1.808558    1.021832
H       0.476503   -1.056771   -1.979198
H       1.914375   -0.432716   -1.071090
H       1.446958   -2.616617    0.380955
H      -1.088988   -3.021194   -0.552998
H      -2.701205   -2.026845    1.080781
H      -0.464565   -1.066949    2.464455
H      -2.069003   -0.458403   -0.764176
