21

C       0.218467    1.724382    0.038495
C       0.124711    0.206158    0.017937
C       0.974856   -0.679755   -0.927501
C       2.329547   -0.142253   -1.371553
C       3.274521    0.316739   -0.292245
C       3.122746    0.308150    1.033387
C       1.958956   -0.163223    1.865228
C       0.740471   -0.693017    1.119648
O       1.117068   -1.672839    0.119383
H       1.244311    2.078537    0.158324
H      -0.180054    2.146282   -0.890988
H      -0.380581    2.134976    0.859049
H      -0.923240   -0.086082   -0.103938
H       0.444294   -1.092897   -1.793643
H       2.832299   -0.928506   -1.953845
H       2.163898    0.679293   -2.085530
H       4.220959    0.694325   -0.677088
H       3.957159    0.679397    1.626976
H       2.318242   -0.957593    2.535977
H       1.635022    0.649368    2.533736
H       0.028482   -1.116425    1.838106
