18

C      -0.026686    1.468796    0.001832
C       0.003585   -0.035711    0.001913
C       0.629834   -0.969215   -1.083144
C       0.047818   -1.922591    0.012473
C       0.652477   -0.971420    1.074538
C      -1.220715   -1.006214    0.004303
C       0.065742   -3.410010   -0.005323
O       0.569585   -4.099295    0.846807
H       0.988206    1.881050   -0.005417
H      -0.552845    1.853931   -0.878462
H      -0.537018    1.850341    0.892888
H       0.139284   -0.984475   -2.060464
H       1.719186   -0.957261   -1.177077
H       1.742770   -0.954624    1.146849
H       0.184954   -0.985842    2.062157
H      -1.832639   -1.028715    0.910202
H      -1.835234   -1.024253   -0.900178
H      -0.437039   -3.866099   -0.890993
