18

C      -0.059656    1.404763   -0.213687
C       1.259451    0.732142   -0.019699
C       2.037360    0.821376    1.293321
C       1.485129    1.818605    2.314572
O       0.351205    1.121231    2.833056
C       0.497997   -0.250033    2.441486
C      -0.430430   -0.596582    1.267777
N       0.000664   -0.039740   -0.021129
O       1.837250   -0.400365    2.029548
H      -0.454654    2.015924    0.592864
H      -0.355225    1.722843   -1.210866
H       1.878403    0.548781   -0.895151
H       3.106907    0.929354    1.110064
H       2.216923    2.004212    3.110604
H       1.167986    2.771590    1.884699
H       0.319151   -0.897119    3.305874
H      -0.434393   -1.688308    1.166904
H      -1.452637   -0.274565    1.489549
