18

C       0.953095   -1.025735   -1.078735
C       0.152500   -0.481537    0.103295
O       0.301675    0.937465    0.232264
C      -1.297929   -0.865850    0.038526
C      -2.065952   -1.509322   -0.908790
N      -3.353740   -1.565318   -0.477334
N      -3.429288   -0.989671    0.689178
N      -2.193733   -0.562109    1.016829
C      -1.970618    0.110808    2.282919
H       1.992047   -0.699578   -0.993903
H       0.926783   -2.118987   -1.103446
H       0.550831   -0.653340   -2.027293
H       0.587677   -0.871756    1.031891
H      -0.103008    1.341243   -0.544728
H      -1.769972   -1.929804   -1.856220
H      -1.448173   -0.547086    2.984994
H      -1.372079    1.007473    2.117816
H      -2.947905    0.366794    2.691153
