18

C       0.356156    1.645312   -0.266199
C       0.430421    0.125144   -0.276186
O       1.354248   -0.310799   -1.300743
C       2.497193   -0.839637   -0.766226
O       3.460520   -1.086626   -1.431686
C       2.301291   -1.043239    0.710806
C       0.963226   -0.454611    1.028548
N       1.173768   -1.880407    1.125649
C       0.535803   -2.829096    0.215907
H       1.318830    2.080308    0.019676
H       0.089219    2.017335   -1.258197
H      -0.403233    1.981339    0.447114
H      -0.545323   -0.297933   -0.541176
H       3.178129   -1.035155    1.347813
H       0.749387    0.073868    1.953331
H       0.432819   -2.490699   -0.823185
H       1.121575   -3.752164    0.221168
H      -0.459165   -3.057646    0.609675
