22

C       0.072345    1.478836    0.369196
C      -0.029845    0.054520   -0.192922
C      -1.419434   -0.562344   -0.089786
C      -2.509901    0.182343   -0.841202
C      -1.575293   -2.058191    0.013709
C      -0.431228   -3.047833   -0.014285
C      -1.857392   -1.188548    1.243157
C      -0.962655   -1.220126    2.363144
N      -0.237602   -1.243081    3.265913
H       1.100254    1.844698    0.290553
H      -0.568642    2.181697   -0.171311
H      -0.209260    1.504404    1.426264
H       0.263416    0.054265   -1.251157
H       0.697438   -0.575392    0.325415
H      -2.261547    0.250818   -1.906681
H      -3.473239   -0.329820   -0.756586
H      -2.641742    1.200405   -0.462615
H      -2.485592   -2.442623   -0.440771
H       0.422922   -2.721204    0.582216
H      -0.757046   -4.012448    0.387846
H      -0.087424   -3.212569   -1.040915
H      -2.896749   -1.056329    1.526493
