18

C      -0.086392    1.499020   -0.064692
C       0.084801   -0.004572    0.057905
O       0.972142   -0.515862   -0.982757
C       1.942383   -1.239944   -0.212670
C       1.084782   -2.011651    0.829970
C       0.813367   -0.548021    1.301289
C       2.303941   -0.258434    0.936134
C       2.931386   -1.874095   -1.061577
N       3.743893   -2.398432   -1.693434
H       0.852192    2.034429    0.099263
H      -0.449328    1.751792   -1.064916
H      -0.822585    1.854335    0.664163
H      -0.891708   -0.492074   -0.059624
H       0.253050   -2.596587    0.432634
H       1.681626   -2.591863    1.533731
H       0.393001   -0.316493    2.277950
H       3.004406   -0.682045    1.655860
H       2.601715    0.747842    0.640548
