21

C      -0.186812    1.418898    0.306905
O      -0.090849    0.034474    0.073700
C      -1.342981   -0.613640    0.084773
C      -1.108255   -2.116611   -0.139430
C      -0.250187   -2.729908    0.984269
C      -2.388325   -2.806707   -0.283551
C      -3.451360   -3.364710   -0.375430
C      -4.729111   -4.050194   -0.519195
O      -5.374032   -4.136415    0.747058
H       0.826194    1.827494    0.276008
H      -0.796470    1.921404   -0.460788
H      -0.629267    1.637713    1.291612
H      -1.858243   -0.456261    1.047245
H      -1.995476   -0.213399   -0.707503
H      -0.554838   -2.208905   -1.084092
H      -0.031255   -3.779784    0.774488
H       0.688242   -2.178899    1.073400
H      -0.779871   -2.678537    1.940633
H      -5.352829   -3.502963   -1.245200
H      -4.553824   -5.052115   -0.944547
H      -6.207758   -4.598311    0.611628
