21

C       0.046103    1.400111   -0.340977
C      -0.004557   -0.017911    0.166972
O       1.219565   -0.767724    0.171110
C       0.577370   -0.509780    1.433204
C       1.328942    0.401844    2.379696
C      -0.025270   -1.758440    2.064217
C       1.045935   -2.788584    2.474770
C       0.424674   -4.108560    2.864498
O       0.580282   -4.663767    3.921265
H       0.895712    1.954727    0.060450
H       0.129774    1.400999   -1.432891
H      -0.875320    1.930725   -0.077238
H      -0.854302   -0.587806   -0.217812
H       1.787684    1.238911    1.852746
H       0.655648    0.798329    3.147416
H       2.128646   -0.145202    2.888837
H      -0.627345   -1.477032    2.936675
H      -0.705371   -2.224625    1.342239
H       1.692111   -2.964406    1.603360
H       1.664924   -2.440215    3.305192
H      -0.224192   -4.556540    2.073951
