21

C       0.275511    1.476711    0.354847
O       0.852621    0.208439    0.123676
C       0.719513   -0.674773    1.209268
C      -0.639696   -1.377588    1.497798
C       0.149798   -2.706947    1.713758
C       1.336479   -2.052255    0.994360
C       1.951443   -2.479720   -0.321526
C       2.804967   -2.312551    0.909063
O       3.697660   -1.240273    1.031291
H       0.718370    1.969036    1.234386
H       0.467835    2.088569   -0.529576
H      -0.810920    1.407544    0.508438
H       1.119403   -0.201251    2.121945
H      -1.245157   -1.002903    2.325870
H      -1.245856   -1.418085    0.589038
H       0.346996   -2.911696    2.770599
H      -0.268652   -3.605110    1.254135
H       1.745358   -3.486571   -0.673174
H       2.027499   -1.730401   -1.103576
H       3.223142   -3.198344    1.376961
H       3.310019   -0.484143    0.574344
