22

C      -0.037922    1.535678   -0.027444
C       0.004662    0.007175    0.019966
C      -1.430924   -0.551557    0.024141
O       0.700316   -0.386209   -1.171175
C       1.034983   -1.762905   -1.209662
C       2.086152   -2.101544   -0.156435
N       1.758656   -1.563482    1.176488
C       2.203159   -0.195659    1.444739
C       0.759833   -0.480770    1.258959
H       0.972001    1.943974   -0.106428
H      -0.614132    1.869931   -0.895660
H      -0.506958    1.937024    0.875968
H      -1.932686   -0.291501   -0.911973
H      -1.455672   -1.638190    0.142541
H      -2.000697   -0.120864    0.853145
H       0.141852   -2.388080   -1.072295
H       1.421408   -1.960197   -2.214218
H       2.179520   -3.191416   -0.072887
H       3.062023   -1.716620   -0.474274
H       2.610724   -0.014823    2.436554
H       2.711377    0.330630    0.638485
H       0.133352   -0.550259    2.147347
