17

N      -0.656553   -1.036811    0.239407
C      -0.396325    0.087026    0.149994
C      -0.070904    1.491566    0.017446
C      -1.062427    2.325320   -0.778408
C      -1.144988    1.894269   -2.226127
C      -2.164686    0.949168   -2.698569
O      -2.282924    2.351733   -2.952559
C       0.736838    2.088870    1.126849
N       1.356872    1.838345   -0.175078
H      -2.056168    2.264332   -0.322639
H      -0.735108    3.368929   -0.727411
H      -0.204853    1.953863   -2.775375
H      -1.965016    0.330113   -3.571174
H      -2.883798    0.538744   -1.991570
H       0.577501    3.135759    1.368115
H       0.994462    1.452173    1.967577
H       1.935026    1.002290   -0.139551
