23

C      -0.279176    1.487879    0.088651
C      -0.164449   -0.038229    0.079150
C       0.843217   -0.562755    1.110172
O       0.459822   -0.168205    2.431287
C       0.364798   -1.303878    3.315469
C       1.416286   -1.152516    4.425973
C      -1.050926   -1.344565    3.907228
C       0.654784   -2.479439    2.410274
C       0.935165   -2.063628    1.182561
H       0.678969    1.957652   -0.161364
H      -1.020628    1.834165   -0.637754
H      -0.576169    1.840897    1.079648
H      -1.139951   -0.493913    0.286851
H       0.146336   -0.388195   -0.914211
H       1.829014   -0.119294    0.880957
H       1.233387   -0.234534    4.992749
H       1.379426   -1.998451    5.120635
H       2.420185   -1.100836    3.996385
H      -1.794680   -1.439421    3.111967
H      -1.164706   -2.190095    4.593882
H      -1.251981   -0.423107    4.462206
H       0.636322   -3.503229    2.763879
H       1.191413   -2.678013    0.328072
