17

C      -0.044512    1.492952   -0.143855
C       1.286296    0.815232    0.017024
C       2.082026    0.861881    1.308896
C       1.212756    0.760516    2.579550
C       0.139872   -0.292547    2.460202
C      -0.389099   -0.642737    1.285373
C       0.023354   -0.023916    0.002181
H      -0.460382    2.046954    0.690585
H      -0.296714    1.897931   -1.118210
H       1.897556    0.763404   -0.879767
H       2.783923    0.018107    1.299491
H       2.690478    1.772867    1.350843
H       1.855646    0.551242    3.442211
H       0.753088    1.736157    2.792523
H      -0.213173   -0.759185    3.375631
H      -1.164349   -1.403356    1.242366
H      -0.188936   -0.599948   -0.892636
