15

C       0.050622    1.587220   -0.032693
C       0.017805    0.048547   -0.035089
C      -1.430993   -0.521827    0.042418
C      -2.104282   -0.164469    1.278448
C      -2.649796    0.131906    2.314721
C      -3.271656    0.465494    3.483897
N      -3.798595    0.751080    4.478791
C       0.675605   -0.488356   -1.230240
N       1.181376   -0.909660   -2.179891
H       1.080211    1.949674   -0.066053
H      -0.482110    1.988077   -0.899600
H      -0.423895    1.965722    0.875702
H       0.570758   -0.322021    0.835866
H      -2.009587   -0.152345   -0.812996
H      -1.398508   -1.613462   -0.049505
