14

N       0.045788    1.212100   -0.208677
C       0.029248   -0.016584    0.016885
O       1.012784   -0.881306    0.478422
C       0.101222   -2.023864    0.506091
C      -0.986846   -1.123795   -0.079013
O      -2.329667   -1.072877    0.307755
C      -2.044440   -1.392054   -1.073537
C      -2.422514   -0.440574   -2.077545
C      -2.752504    0.319640   -2.946750
H       0.957564    1.624166   -0.004672
H       0.466840   -2.840473   -0.120442
H      -0.083688   -2.363370    1.528254
H      -2.227845   -2.437278   -1.322168
H      -3.031443    1.011432   -3.703221
