25

C       0.891359   -0.073364   -1.236765
C      -0.055004   -0.122661   -0.029229
C       0.582609   -0.706087    1.225975
C       1.723650    0.119428    1.824363
C       1.314980    1.516819    2.308713
C      -0.212363   -1.438545    2.284610
C      -1.366736   -2.270346    1.711362
C      -0.348975   -3.030955    0.800688
C       0.791511   -2.193832    1.398279
H       1.281410   -1.070027   -1.469254
H       0.371761    0.299963   -2.124948
H       1.748851    0.583417   -1.059375
H      -0.426069    0.886987    0.186108
H      -0.939407   -0.703748   -0.303997
H       2.147387   -0.438805    2.668238
H       2.535117    0.212153    1.091788
H       2.160223    2.024212    2.784480
H       0.975162    2.151813    1.484695
H       0.502166    1.460296    3.040406
H      -0.116730   -1.165521    3.330246
H      -1.811589   -2.929556    2.460277
H      -2.175847   -1.722116    1.217883
H      -0.273518   -4.087680    1.066559
H      -0.495544   -2.962084   -0.282171
H       1.765619   -2.589042    1.665879
