14

C      -0.130427    1.503174   -0.178366
C       0.014124    0.002060   -0.052752
C       0.844077   -0.766953   -1.013738
N       1.282789   -0.590810    0.381502
C      -1.195009   -0.677973    0.556015
F      -2.297103   -0.413237   -0.171886
F      -1.061925   -2.004087    0.619328
F      -1.426695   -0.228287    1.799953
H       0.756168    1.929958   -0.655615
H      -1.004059    1.763650   -0.782106
H      -0.250475    1.962800    0.807435
H       0.575957   -1.784532   -1.277389
H       1.337276   -0.200567   -1.799114
H       1.992186    0.135122    0.445700
