18

O       0.168035    1.301778   -0.080294
C       0.035087   -0.090731    0.000580
C      -0.433269   -0.675753    1.301572
C      -1.353005   -0.660730    0.048831
C      -1.373666   -2.203445    0.043416
C      -0.287953   -2.976661   -0.768039
C       0.638360   -2.992732    0.494672
C      -0.451954   -2.218545    1.299201
H      -0.533578    1.707689    0.440072
H       0.825961   -0.547196   -0.585353
H      -0.460293   -0.052827    2.190306
H      -2.201984   -0.024687   -0.181993
H      -2.373540   -2.637281    0.076772
H      -0.612487   -3.973629   -1.075407
H       0.103244   -2.462646   -1.649690
H       0.821551   -3.998517    0.880197
H       1.603435   -2.489599    0.393767
H      -0.788758   -2.663028    2.236239
