19

C      -0.406735    1.499207    0.267603
C       0.038578    0.063211    0.026920
C      -1.102221   -0.797454   -0.518855
N       1.294748   -0.037186   -0.776853
C       1.886113   -1.009748    0.162890
C       0.815151   -0.619948    1.223838
O       1.236526    0.345198    2.159767
C       0.150568   -1.735270    1.907151
N      -0.344641   -2.618299    2.465895
H       0.414229    2.099083    0.658914
H      -0.736174    1.936488   -0.681059
H      -1.243583    1.541066    0.971927
H      -1.437768   -0.388720   -1.478266
H      -0.792408   -1.834719   -0.678850
H      -1.959291   -0.805380    0.161417
H       1.156911   -0.391907   -1.717296
H       1.823806   -2.062647   -0.137929
H       2.914138   -0.780850    0.463947
H       1.823829   -0.079885    2.795083
