17

C      -0.552632    1.598532   -0.102492
O      -0.171390    0.356975    0.448618
C      -1.042861   -0.686177    0.119508
C      -0.949022   -1.289870   -1.329438
C      -0.822188   -2.642427   -0.663128
C      -0.609259   -2.050864    0.714927
N      -0.982258   -3.802764   -1.142573
O      -0.841392   -4.783324   -0.140319
H       0.175639    2.340124    0.233498
H      -0.554693    1.577702   -1.202626
H      -1.554731    1.902236    0.238385
H      -2.079879   -0.425927    0.378297
H      -1.789407   -1.143554   -2.011444
H      -0.021785   -0.976710   -1.822423
H       0.445335   -2.031792    1.009023
H      -1.200182   -2.469971    1.531532
H      -1.002369   -5.596570   -0.630495
