20

C      -0.449357    1.526713    0.208336
C       0.007352    0.087747    0.036124
C      -1.074442   -0.767357   -0.615863
O       1.240456    0.016553   -0.735726
C       1.856718   -0.867736    0.207940
C       0.742570   -0.608044    1.259721
C       1.187688    0.309077    2.406703
C       0.091807   -1.795737    1.799745
N      -0.419392   -2.735593    2.238808
H       0.337675    2.160487    0.619469
H      -0.728801    1.931435   -0.769460
H      -1.327049    1.582340    0.860093
H      -1.324871   -0.345795   -1.593735
H      -0.738161   -1.796527   -0.762501
H      -1.981062   -0.791281   -0.003526
H       1.908169   -1.901844   -0.153364
H       2.857978   -0.534149    0.501138
H       1.755458    1.156843    2.017215
H       0.331693    0.688353    2.971074
H       1.831022   -0.243474    3.097348
