21

C      -0.027494    1.647463    0.179566
C       0.036341    0.126647    0.069423
C      -1.369797   -0.470240   -0.169066
C      -1.980973   -0.059087   -1.427909
C      -2.463070    0.282308   -2.475320
C       1.085463   -0.488817   -0.929195
C       1.700736   -1.287989    0.225684
C       2.200442   -0.350643    1.286668
C       0.728046   -0.643147    1.215128
H       0.962284    2.080223    0.348981
H      -0.435412    2.086890   -0.736225
H      -0.671757    1.951783    1.013125
H      -1.299137   -1.565222   -0.141936
H      -2.023975   -0.185278    0.666428
H      -2.899450    0.580272   -3.396165
H       0.613931   -1.099687   -1.701852
H       1.757993    0.224207   -1.417445
H       2.030247   -2.318350    0.171907
H       2.715888   -0.817972    2.120005
H       2.595641    0.625692    1.016922
H       0.200956   -1.094701    2.049329
