27

C      -0.140007    1.583533    0.009947
C       0.086071    0.071362   -0.070008
C       0.692078   -0.517652    1.208435
C       0.920546   -2.032211    1.138049
C       1.514011   -2.618569    2.412238
C       0.645644   -2.673261    3.702973
C       1.262443   -4.065040    4.019175
C       0.377527   -5.152013    4.608803
C       1.687983   -4.158774    2.526615
H       0.801588    2.115933    0.185661
H      -0.574718    1.973968   -0.915706
H      -0.819858    1.839037    0.830553
H      -0.867059   -0.431075   -0.282617
H       0.743061   -0.157172   -0.919869
H       1.646894   -0.016012    1.421059
H       0.035602   -0.287436    2.059012
H      -0.033377   -2.534981    0.922569
H       1.582396   -2.261445    0.290549
H       2.467776   -2.123236    2.633748
H       0.762472   -1.877834    4.443806
H      -0.419062   -2.762917    3.454865
H       2.153760   -3.934449    4.644138
H      -0.521359   -5.299680    3.998989
H       0.904570   -6.111625    4.661780
H       0.052185   -4.895865    5.623691
H       0.929798   -4.684758    1.933959
H       2.666996   -4.586730    2.294030
