19

O       0.315736   -0.265113   -0.083065
C       0.178930    0.929636   -0.007568
C       1.318224    1.919461    0.056656
C       1.305068    2.920947   -1.128698
C       1.953655    4.230096   -0.591490
C       2.313615    3.946688    0.882102
C       1.322103    2.838284    1.318052
C       0.006363    3.390491    1.635316
C      -1.065060    3.870569    1.896362
H      -0.831156    1.395473    0.004831
H       2.249172    1.345233    0.061398
H       1.833734    2.505755   -1.989688
H       0.274768    3.109300   -1.448395
H       2.833769    4.519548   -1.170957
H       1.242078    5.057162   -0.655855
H       3.330085    3.546108    0.960336
H       2.252543    4.830786    1.520263
H       1.693030    2.288114    2.189349
H      -2.013291    4.284051    2.136998
