21

C      -0.271619    1.507023   -0.986523
C      -0.043259    0.249184   -0.139668
C      -1.332226   -0.466154    0.209862
C      -2.025062   -1.357011   -0.779320
C      -1.432962   -1.950626    0.483784
C      -0.248618   -2.891429    0.448986
O      -2.237588    0.366797    0.940380
C      -2.037896    0.465709    2.270585
O      -2.697332    1.175936    2.969279
H       0.677350    2.006739   -1.200952
H      -0.746121    1.255693   -1.940533
H      -0.922020    2.215947   -0.467815
H       0.611750   -0.444361   -0.675920
H       0.484469    0.514899    0.786029
H      -3.103113   -1.276047   -0.853072
H      -1.514744   -1.544617   -1.718891
H      -2.173089   -2.200307    1.239870
H       0.448246   -2.643880   -0.356379
H       0.309147   -2.872758    1.391668
H      -0.586073   -3.919876    0.282327
H      -1.217259   -0.182031    2.631583
