16

C      -0.290820    1.613261   -0.180843
C       0.051673    0.124872    0.009887
C       0.823927   -0.466732   -1.108856
C       2.057066   -1.001485   -1.270350
O       3.016301   -1.157634   -0.335047
N       2.263645   -1.407736   -2.583830
C       1.141939   -1.096371   -3.154642
O       0.792904   -1.268776   -4.427376
O       0.220216   -0.535570   -2.380418
H       0.618875    2.214541   -0.269984
H      -0.883273    1.762371   -1.088250
H      -0.870441    1.989078    0.667938
H       0.653802   -0.009592    0.914725
H      -0.876202   -0.441856    0.168596
H       3.766367   -1.575933   -0.772920
H       1.545223   -1.680652   -4.870669
