15

N      -0.353560    1.116813    0.014888
C      -0.578771   -0.085425   -0.280244
O      -0.977703   -0.944852    0.696088
C      -1.002662   -2.302847    0.365780
C      -2.122684   -3.145851    0.859854
N      -3.396450   -2.426659    0.854162
C      -3.289407   -2.119324   -0.516653
O      -3.979461   -1.475242   -1.249674
C      -1.982333   -2.896625   -0.647577
H      -0.094496    1.638443   -0.820060
H      -0.509604   -0.555953   -1.268053
H      -0.019401   -2.772259    0.357854
H      -2.006506   -4.067776    1.413621
H      -3.620195   -1.715044    1.541509
H      -1.673701   -3.554096   -1.447952
