20

C      -0.185992    1.444885   -0.093323
C       1.253579    1.069348    0.155081
C       0.202924   -0.007316    0.029887
C      -0.215074   -0.820234    1.230459
C      -1.596510   -1.493143    1.121376
C      -1.498729   -2.616900    2.160188
O      -0.112556   -2.947598    2.281056
C       0.671479   -2.043715    1.511734
H      -0.740344    1.891852    0.725635
H      -0.458721    1.825353   -1.071374
H       1.966397    1.192675   -0.652596
H       1.663571    1.264704    1.140686
H       0.215349   -0.572934   -0.899737
H      -0.207186   -0.174158    2.118892
H      -2.427675   -0.809577    1.310497
H      -1.726019   -1.907211    0.114487
H      -1.874662   -2.289834    3.140496
H      -2.059652   -3.513486    1.870275
H       0.981843   -2.515445    0.564361
H       1.577383   -1.798936    2.076317
