18

C       0.860365    1.035349    0.318433
C      -0.429822    0.463739   -0.236072
O      -1.508978    0.764468    0.214473
C      -0.314808   -0.554458   -1.410457
C      -1.703902   -0.798689   -2.014549
C       0.702880   -0.077077   -2.460277
C       0.173441   -1.853128   -0.757768
O       1.323216   -2.205164   -0.700069
H       1.625265    0.261117    0.426132
H       1.259605    1.787414   -0.371009
H       0.657182    1.511659    1.278157
H      -2.099069    0.123735   -2.447452
H      -1.651176   -1.555700   -2.803446
H      -2.412171   -1.129341   -1.252053
H       1.716037   -0.057728   -2.057052
H       0.702203   -0.762364   -3.312948
H       0.444286    0.919915   -2.829314
H      -0.638959   -2.463430   -0.304231
