17

C       0.057095    1.671227    0.402060
C       0.019290    0.160141    0.398656
C       1.104068   -0.711288   -0.186659
O       2.397657   -0.127917   -0.006369
C       2.275549   -0.243034    1.437602
C       0.842770   -0.744590    1.296270
O       0.320549   -1.771787    2.082213
C      -0.564140   -1.417325    3.050368
O      -1.046565   -2.214715    3.792484
H       1.087587    2.034108    0.412508
H      -0.420672    2.064828   -0.500658
H      -0.468244    2.087431    1.267908
H      -0.959392   -0.284381    0.220351
H       0.974237   -1.439745   -0.977725
H       2.948250   -1.016850    1.822021
H       2.451146    0.706278    1.955102
H      -0.773778   -0.332357    3.055127
