24

C       0.449752   -0.392362    1.322257
C      -0.055597    0.100650   -0.039679
C      -0.045884    1.633839   -0.112343
C       0.731346   -0.515331   -1.236294
C       2.132232   -0.075669   -1.190216
N       3.235323    0.266994   -1.132458
C       0.663817   -2.066713   -1.371165
C      -0.785711   -2.569548   -1.395981
C       1.413088   -2.536016   -2.626868
H       0.356464   -1.476950    1.430248
H       1.502296   -0.127972    1.469596
H      -0.126667    0.070154    2.129243
H      -1.093174   -0.227961   -0.164350
H       0.967318    2.030944    0.007855
H      -0.435583    1.991745   -1.071409
H      -0.668737    2.057967    0.681127
H       0.302499   -0.092126   -2.156238
H       1.167240   -2.498600   -0.497891
H      -0.802947   -3.648510   -1.577270
H      -1.311799   -2.387337   -0.455576
H      -1.355747   -2.091095   -2.201515
H       2.455937   -2.208236   -2.623579
H       1.402571   -3.628215   -2.691806
H       0.938367   -2.145109   -3.534966
