15

O       0.075685    1.306970    0.467239
C       0.001173    0.005405   -0.084930
C      -1.420637   -0.452057   -0.012065
C      -2.590817    0.257957   -0.094591
C      -3.665967   -0.681751    0.000426
C      -3.105246   -1.939871    0.136482
N      -1.751936   -1.782715    0.129942
C      -5.052921   -0.396486   -0.033236
N      -6.186142   -0.156604   -0.063803
H       0.910973    1.699114    0.195882
H       0.348785    0.003848   -1.131405
H       0.644333   -0.707102    0.461778
H      -2.677677    1.326339   -0.199389
H      -3.569385   -2.906200    0.240799
H      -1.089134   -2.532789    0.232030
