24

C      -0.359379    1.281120   -0.148879
N       0.078689   -0.095778    0.009951
C       1.494495   -0.366279   -0.209912
C       0.910777   -0.491392    1.156392
C       1.329446    0.433583    2.284208
C       0.512612    0.245486    3.585643
C       1.056095    1.171513    4.682311
C      -0.982394    0.488433    3.368999
O       0.605315   -1.118988    4.019814
H       0.389278    2.041792    0.127430
H      -0.616917    1.441761   -1.201045
H      -1.260137    1.452546    0.448829
H       1.735606   -1.246499   -0.801353
H       2.147895    0.488898   -0.388754
H       0.674485   -1.493219    1.508559
H       2.383919    0.232918    2.524276
H       1.289230    1.482351    1.972808
H       0.946315    2.225495    4.407066
H       0.519905    1.000184    5.620011
H       2.122318    0.984358    4.858799
H      -1.378955   -0.186150    2.606460
H      -1.526730    0.308105    4.300125
H      -1.166483    1.519463    3.053507
H       1.527294   -1.297080    4.236256
