15

C       0.086298    1.440871   -0.006148
N       0.003120   -0.007830    0.063274
C       0.606276   -0.726716    1.032616
N       0.770300   -2.025299    1.070818
C       1.388117   -2.186170    2.287695
C       1.793820   -3.518162    2.818778
N       1.604849   -1.087671    2.963353
O       1.073292   -0.078409    2.104525
H       1.078888    1.796690   -0.311866
H      -0.653582    1.799726   -0.724038
H      -0.145129    1.868248    0.971562
H      -0.176300   -0.524160   -0.782271
H       2.491485   -4.003305    2.129508
H       2.268658   -3.409054    3.794839
H       0.919947   -4.169827    2.912771
