16

C       0.170528    1.524119   -0.136359
C      -0.048722    0.051235   -0.020147
C      -1.201229   -0.648142    0.005175
C      -2.577993   -0.056640   -0.083236
C      -1.142674   -2.120372    0.129232
O      -2.142249   -2.806792    0.157817
N       0.144052   -2.708773    0.214817
C       1.154464   -1.941626    0.179823
O       1.162081   -0.597314    0.068266
H       0.775661    1.745656   -1.022136
H      -0.768525    2.069265   -0.208778
H       0.725101    1.891751    0.733805
H      -2.576280    1.030118   -0.172338
H      -3.109680   -0.480551   -0.940962
H      -3.159962   -0.337672    0.800170
H       2.171990   -2.319595    0.240236
