18

O       0.379806    1.377415   -1.287087
C       0.198239    1.539042   -0.097260
N       1.107904    1.252856    0.867707
C       2.423874    0.706693    0.558072
C       3.394578    1.751499    0.013897
C       3.868164    2.912988    0.967163
C       5.304051    2.404143    0.791043
O       5.327991    1.041978    1.236416
C       4.866818    1.313826   -0.094653
H      -0.746670    1.937527    0.324011
H       0.867929    1.446022    1.826015
H       2.834477    0.265774    1.469327
H       2.294693   -0.089875   -0.182281
H       3.017115    2.147568   -0.931181
H       3.697182    3.902340    0.537535
H       3.497399    2.893886    1.995881
H       6.238600    2.951359    0.828639
H       5.374635    0.806724   -0.906962
