22

C      -0.015325    1.582589    0.273286
C      -0.141653    0.080378    0.008533
C       0.821347   -0.415371   -1.077525
C       0.704111   -1.909598   -1.344818
O      -0.645130   -2.208096   -1.818926
C      -0.482821   -3.013464   -2.891843
N       0.677919   -3.294305   -3.311666
C       1.618817   -2.549706   -2.444511
C       2.457487   -1.592520   -3.294333
H       0.996981    1.846112    0.600231
H      -0.231382    2.163747   -0.630087
H      -0.711574    1.908634    1.052015
H       0.046300   -0.474742    0.937326
H      -1.167331   -0.161420   -0.290348
H       0.644133    0.135810   -2.008554
H       1.855121   -0.200064   -0.777135
H       0.818497   -2.455474   -0.400039
H      -1.410911   -3.366417   -3.329342
H       2.296724   -3.271889   -1.976385
H       1.829840   -0.863281   -3.814533
H       3.189334   -1.051858   -2.686527
H       2.996868   -2.166774   -4.051784
