11

N      -0.052587    1.321723    0.007036
C       0.052629   -0.028827    0.001246
O       1.098839   -0.648487   -0.009726
C      -1.252351   -0.756354    0.008934
N      -2.424178   -0.178454    0.020849
O      -3.337720   -1.184727    0.024384
N      -2.725152   -2.413746    0.014257
C      -1.446924   -2.165375    0.004805
H       0.790497    1.871109    0.002815
H      -0.950283    1.776500    0.016693
H      -0.708404   -2.950266   -0.004456
