18

C      -0.038870    1.542998    0.031609
C       1.491918    1.583867    0.064895
C       2.010531    0.845905    1.249919
O       1.459027    0.930031    2.548618
C       0.363071    0.263823    3.008733
N      -0.534134   -0.449507    2.492531
C      -0.706270   -0.822682    1.106516
C       0.015333   -0.023495    0.028037
C       1.542497    0.027012    0.099231
H      -0.541084    2.020309    0.877953
H      -0.458976    1.940725   -0.893483
H       2.113811    2.283268   -0.481316
H       3.091102    0.885385    1.352303
H       0.320639    0.456962    4.081534
H      -0.416939   -1.880073    1.009077
H      -1.786610   -0.800717    0.906435
H      -0.308224   -0.396779   -0.948666
H       2.211043   -0.663804   -0.403445
