17

C       0.096829    1.499412    0.097241
C       0.089703   -0.028739    0.013661
C       0.603431   -0.559256   -1.319858
O       1.965505   -0.110176   -1.536722
C       2.789278   -1.114344   -1.948434
O       3.903070   -0.927902   -2.340126
C       2.040640   -2.419033   -1.825021
O       1.589267   -2.628995   -0.473633
C       0.677646   -2.073526   -1.418244
H       1.108286    1.890421   -0.037626
H      -0.541793    1.943134   -0.674587
H      -0.272849    1.835060    1.070141
H       0.704724   -0.464444    0.807476
H      -0.929722   -0.411515    0.151381
H       0.000556   -0.166588   -2.149732
H       2.348945   -3.292321   -2.387184
H      -0.197996   -2.667134   -1.661797
