18

C      -0.003551    1.498259   -0.255276
C       0.029949   -0.000107    0.108105
C       0.685234   -0.272751    1.487440
C       2.141643    0.120704    1.538181
C       3.158265   -0.734895    2.162934
O       3.034228   -0.668114    0.741685
C      -1.315401   -0.570341    0.071717
C      -2.427694   -1.026987    0.063999
H       1.008046    1.909210   -0.312536
H      -0.484315    1.646109   -1.225346
H      -0.568759    2.065341    0.491199
H       0.642197   -0.520579   -0.640241
H       0.132928    0.268830    2.265462
H       0.595149   -1.340200    1.710899
H       2.353096    1.190023    1.495337
H       4.063420   -0.291156    2.575502
H       2.857441   -1.679440    2.614635
H      -3.406627   -1.437596    0.042997
