12

C       0.204950   -1.141452   -0.005846
C       0.077317    0.055944    0.002219
C      -0.098673    1.446590    0.011991
C      -1.197200    2.262720    0.032323
N      -0.799541    3.575483    0.033328
C       0.506040    3.523659    0.013839
O       1.006815    2.259254    0.000037
C       1.421665    4.594295    0.006023
C       2.202533    5.508873   -0.000628
H       0.319966   -2.197415   -0.012996
H      -2.236375    1.976007    0.046080
H       2.889316    6.319533   -0.006450
