20

C      -0.117702    1.497577   -0.293754
C      -0.031712    0.015829    0.081560
C      -1.399022   -0.674932    0.107069
C      -1.300741   -2.158852    0.482535
N      -2.590857   -2.828745    0.523006
C      -3.042007   -3.613927   -0.496731
O      -2.402344   -3.870520   -1.501188
C      -4.384401   -4.140298   -0.269573
C      -5.489719   -4.587419   -0.114603
H       0.872323    1.963612   -0.305276
H      -0.559425    1.628233   -1.287592
H      -0.738591    2.051618    0.419064
H       0.622302   -0.505744   -0.629200
H       0.446378   -0.086443    1.065095
H      -2.058979   -0.160896    0.819600
H      -1.878428   -0.593736   -0.876040
H      -0.697303   -2.695470   -0.253423
H      -0.816447   -2.271121    1.460212
H      -3.221962   -2.639961    1.285345
H      -6.465315   -4.990439    0.008553
