15

C       0.124435    1.375749    0.142048
C      -0.005248   -0.142804    0.051110
O      -1.345155   -0.618547    0.040390
C      -2.004298   -0.526636    1.280416
C      -3.280568   -1.243080    1.194308
N      -4.291709   -1.798537    1.156820
C       0.626419   -0.697489   -1.225412
O       1.626252   -0.252368   -1.720620
H       1.163467    1.650564   -0.053888
H      -0.508553    1.853094   -0.611314
H      -0.154908    1.751746    1.129579
H       0.541839   -0.613074    0.889844
H      -1.403704   -0.975871    2.088189
H      -2.210155    0.515309    1.566070
H       0.081342   -1.568830   -1.646384
