18

C      -0.329991    1.336736   -0.118420
O       0.245606    0.046412    0.082398
C       0.793212   -0.509186   -1.050285
C      -0.091865   -1.133945   -2.116118
C       0.799571   -2.001257   -1.265218
C       2.158305   -2.330804   -1.844334
O       2.771798   -1.065909   -2.170534
C       2.120577   -0.030368   -1.556365
N       2.577218    1.141232   -1.442110
H       0.427658    2.057281   -0.438227
H      -1.135455    1.295375   -0.864841
H      -0.749222    1.636743    0.844113
H      -1.148637   -1.157126   -1.875482
H       0.144935   -0.986564   -3.165213
H       0.357050   -2.662674   -0.531689
H       2.791264   -2.852746   -1.117124
H       2.116718   -2.921619   -2.764634
H       3.523666    1.197466   -1.821342
