16

C       0.040299    1.510549   -0.156982
C       0.023784   -0.001893    0.109114
O       0.576835   -0.293076    1.385654
C      -1.366416   -0.568527    0.011336
C      -2.001310   -1.229398   -1.005643
N      -3.270417   -1.497553   -0.533561
C      -3.344258   -1.003235    0.731671
N      -2.217059   -0.434462    1.090159
H       1.053473    1.898445   -0.019245
H      -0.290561    1.736299   -1.176471
H      -0.628962    2.021565    0.542314
H       0.666626   -0.499640   -0.627353
H      -0.157457   -0.222511    2.009930
H      -1.683376   -1.530513   -1.989712
H      -3.998370   -1.984843   -1.028447
H      -4.234763   -1.089839    1.336096
