12

N       0.076389    1.347534    0.171670
C      -0.068810   -0.007750    0.057968
C      -1.233909   -0.715659    0.018528
N      -1.212563   -2.081688   -0.021940
C      -0.090391   -2.687986   -0.028987
F      -0.054146   -4.012259   -0.068280
C       1.222297   -2.045548   -0.003741
O       2.307820   -2.545313   -0.020993
O       1.117777   -0.645879    0.040747
H       0.965475    1.716684   -0.130740
H      -0.722392    1.907778   -0.080107
H      -2.197689   -0.224781    0.025723
