23

O       0.713457    0.769929   -0.702550
C       0.469545   -0.623923   -0.580056
C      -0.981483   -0.802228   -0.145559
C      -1.415312   -2.268942    0.039677
C      -0.906387   -2.824391    1.373677
O      -1.120336   -4.228953    1.384776
C      -2.941979   -2.443007   -0.056356
C      -3.480623   -2.402181   -1.480956
O      -4.893468   -2.536926   -1.413482
H       1.627959    0.892644   -0.973035
H       0.630769   -1.142450   -1.539712
H       1.154320   -1.080168    0.151986
H      -1.139450   -0.244681    0.786922
H      -1.610145   -0.315048   -0.898138
H      -0.949847   -2.881018   -0.747279
H       0.162576   -2.593898    1.499964
H      -1.447068   -2.331752    2.198774
H      -0.919219   -4.558690    2.264997
H      -3.219041   -3.405342    0.383219
H      -3.443516   -1.662316    0.530246
H      -3.200646   -1.458874   -1.976903
H      -3.030194   -3.221544   -2.065438
H      -5.239853   -2.510872   -2.310011
