13

O       0.100232    1.384342   -0.145058
C       0.068310    0.025549   -0.037531
C      -0.010608   -0.824755   -1.123732
N      -0.020870   -2.105478   -0.634318
C       0.049621   -2.094706    0.738635
C       0.106619   -0.762353    1.136086
C       0.055700   -3.280441    1.496186
C       0.059981   -4.305226    2.131982
H       0.155541    1.759282    0.738263
H      -0.058634   -0.611710   -2.177906
H      -0.072232   -2.942357   -1.187850
H       0.168304   -0.417766    2.157057
H       0.064406   -5.201192    2.701176
