20

C      -0.303424    1.507659    0.001476
C       0.086165    0.032473    0.012345
C       0.963795   -0.371330   -1.195732
C       1.348474   -1.847172   -1.165324
C       2.677304   -2.260026   -0.633831
N       1.463652   -2.570572    0.113013
C       1.217732   -1.846545    1.362251
C       0.836846   -0.366467    1.273765
O       1.091341    0.402226    2.171989
H       0.585341    2.144536    0.038477
H      -0.865348    1.751193   -0.905469
H      -0.917351    1.757637    0.869894
H      -0.817915   -0.594895   -0.018929
H       0.422326   -0.153471   -2.121426
H       1.857767    0.263366   -1.205153
H       0.897676   -2.454608   -1.947236
H       3.207869   -3.117096   -1.040856
H       3.322691   -1.461741   -0.266541
H       0.364036   -2.331595    1.860314
H       2.071493   -1.949056    2.038107
