16

C      -0.037802    1.518945   -0.139183
C      -0.033827    0.012204    0.112890
N      -1.373614   -0.557490    0.061449
N      -2.010811   -0.993535    1.138802
N      -3.184397   -1.404555    0.727834
C      -3.216994   -1.195574   -0.612745
C      -4.382157   -1.526434   -1.480095
N      -2.082297   -0.660376   -1.057793
H       0.986267    1.900817   -0.100634
H      -0.455745    1.742925   -1.123447
H      -0.630020    2.037786    0.619449
H       0.573470   -0.508261   -0.632526
H       0.348455   -0.229520    1.106102
H      -5.215501   -0.842979   -1.288874
H      -4.103414   -1.449255   -2.532207
H      -4.735247   -2.540466   -1.275207
