17

C      -0.083825    1.470812    0.226424
C       0.139258   -0.018266   -0.023178
C       0.731730   -0.294702   -1.405469
O       0.991666    0.567778   -2.203375
N       0.937259   -1.664258   -1.637256
C       1.460995   -2.280951   -2.784993
C       1.527870   -3.796408   -2.652410
O       1.817957   -1.682651   -3.765533
H       0.856580    2.021862    0.153225
H      -0.765583    1.891093   -0.516502
H      -0.507585    1.633206    1.221198
H       0.812192   -0.445372    0.732830
H      -0.803096   -0.575700    0.066569
H       0.675908   -2.281766   -0.883218
H       0.531445   -4.218942   -2.483153
H       1.941576   -4.207049   -3.572450
H       2.162040   -4.088204   -1.808198
