19

O      -1.078424    1.523699   -0.029845
C      -0.008934    1.085390    0.307682
C       1.309635    1.701107   -0.058250
C       2.340423    1.668544    1.005315
O       2.376785    0.732191   -0.058794
C       1.308139    2.737339   -1.148386
C       2.651852    3.366324   -1.606962
C       2.137635    3.295786   -3.070701
C       1.080075    2.256541   -2.612935
H       0.091432    0.166660    0.928150
H       3.111177    2.437014    0.988797
H       2.107212    1.256688    1.986774
H       0.574826    3.505418   -0.886445
H       2.919824    4.345180   -1.202200
H       3.479647    2.670165   -1.444418
H       1.673590    4.235620   -3.382873
H       2.849972    2.987971   -3.838939
H       1.438718    1.231997   -2.748402
H       0.068302    2.335415   -3.013725
