15

C      -0.059280    1.345430    0.307335
C       0.002825    0.018069   -0.452195
N      -1.284209   -0.653806   -0.531306
C      -1.585071   -1.762997    0.208962
C      -3.007295   -2.280400    0.046680
O      -0.783081   -2.303562    0.949474
H       0.928471    1.816573    0.335023
H      -0.751223    2.048022   -0.170452
H      -0.393114    1.185075    1.336480
H       0.386235    0.179450   -1.467137
H       0.673578   -0.680559    0.052194
H      -2.010335   -0.232474   -1.086625
H      -3.560024   -1.805376   -0.768385
H      -2.968852   -3.358281   -0.125283
H      -3.551367   -2.117850    0.981917
