20

O       0.150617    1.109044   -0.515076
C      -0.044267   -0.283327   -0.308395
C      -1.487947   -0.492471    0.147368
C      -2.540713   -0.075344   -0.921463
C      -3.153060   -1.360815   -1.460455
C      -2.227222   -2.414093   -2.018053
C      -2.706288   -2.514252   -0.590750
C      -1.800442   -1.975345    0.508110
H       1.038500    1.241031   -0.859437
H       0.162980   -0.849081   -1.230217
H       0.638349   -0.666079    0.467751
H      -1.603924    0.137955    1.034688
H      -3.327562    0.528906   -0.457318
H      -2.084732    0.549053   -1.696440
H      -4.162850   -1.317901   -1.854586
H      -2.648221   -3.115943   -2.730570
H      -1.190280   -2.163013   -2.216931
H      -3.383542   -3.323313   -0.338941
H      -0.882876   -2.565776    0.624502
H      -2.326614   -2.026517    1.467345
