16

O      -0.108746    1.367001    0.086837
C       0.048689   -0.023554    0.048287
C       0.750713   -0.442777   -1.229795
O       1.088323    0.380949   -2.047779
C       0.836317   -0.507487    1.286418
C       0.150703   -0.115307    2.621723
O      -0.177062   -1.394288    3.228733
C       0.312734   -2.327641    2.388484
N       0.895366   -1.980739    1.316053
H       0.284497    1.693872   -0.739374
H      -0.932958   -0.530792    0.060629
H       0.938615   -1.522708   -1.360056
H       1.848838   -0.095148    1.222372
H       0.809784    0.424254    3.305168
H      -0.771435    0.453041    2.486274
H       0.159567   -3.350332    2.715647
