18

C      -0.039796    1.528996    0.086299
C       0.038561    0.020476    0.023691
C       1.358246   -0.680470   -0.196577
C       0.687056   -0.754234    1.155753
O       1.271134   -0.017090    2.208964
C       1.095023   -0.695300    3.390574
N       1.541257   -0.197006    4.467904
C       0.369325   -1.938990    3.077678
C       0.132461   -1.973096    1.762243
H       0.825679    1.945368    0.606390
H      -0.076611    1.954634   -0.921999
H      -0.936776    1.853319    0.623460
H      -0.830164   -0.467236   -0.412064
H       1.395444   -1.578400   -0.803688
H       2.249069   -0.062507   -0.234870
H       1.333292   -0.818825    5.246872
H       0.095828   -2.669565    3.825370
H      -0.378511   -2.739564    1.194807
