20

C       0.277314    1.539502   -0.043009
C      -0.155092    0.077010   -0.211854
C       0.650760   -0.628714   -1.282255
C       1.944393   -1.309577   -0.987665
C       0.735006   -2.158904   -1.379127
C       0.070749   -3.068143   -0.364258
C       0.762659   -2.678176   -2.774414
O       1.278267   -2.116612   -3.713064
H       1.331568    1.607064    0.244285
H       0.152214    2.098066   -0.976692
H      -0.317082    2.039159    0.728015
H      -0.051554   -0.442716    0.747024
H      -1.221416    0.039807   -0.469281
H       0.606722   -0.158750   -2.262201
H       2.742025   -1.241773   -1.718954
H       2.262319   -1.383602    0.047972
H       0.148712   -2.671177    0.649665
H      -0.993829   -3.208336   -0.584013
H       0.542031   -4.057563   -0.362228
H       0.254345   -3.660420   -2.912033
