20

C       0.102212    1.668513    0.409207
C       0.012828    0.168535    0.119920
C      -1.378135   -0.263596    0.557288
C      -2.579400    0.137987   -0.189174
O      -2.123789   -1.213397   -0.207770
C       0.645138   -0.484145   -1.147486
C       2.004921   -0.176951   -0.487753
N       1.179924   -0.691277    0.711056
C       0.723248   -1.771317   -0.293246
H       1.098693    2.090958    0.287837
H      -0.579215    2.220047   -0.245902
H      -0.208258    1.860518    1.442332
H      -1.475369   -0.391945    1.637404
H      -3.516046    0.313381    0.337977
H      -2.471133    0.674211   -1.131373
H       0.345113   -0.367217   -2.195024
H       2.836810   -0.840657   -0.735474
H       2.354839    0.850525   -0.406282
H      -0.192191   -2.290219   -0.024608
H       1.521021   -2.477790   -0.535468
