18

C      -0.252517    1.547995   -0.016612
C       0.034557    0.044917    0.037203
C       0.951403   -0.454058   -1.134146
N       1.735652   -1.606237   -0.606203
C       1.792415   -1.372911    0.786980
C       0.852801   -0.458961    1.189180
N       0.906408   -0.417290    2.542825
N       1.864264   -1.231991    3.037274
C       2.403756   -1.834574    1.967425
H       0.675393    2.125778    0.042065
H      -0.763070    1.814003   -0.948132
H      -0.898771    1.858706    0.810939
H      -0.923886   -0.494455   -0.002623
H       0.373022   -0.751373   -2.013186
H       1.615226    0.374666   -1.425547
H       2.639815   -1.688783   -1.055286
H       0.381991    0.150936    3.184845
H       3.199370   -2.550396    2.108292
