14

C      -0.045716    1.433387    0.007519
N       0.020135   -0.015258    0.002749
C      -1.051405   -0.678558    0.009464
O      -2.298660    0.016547    0.021310
C      -3.456484   -0.663836    0.027675
C      -3.464009   -2.005805    0.023257
F      -4.594747   -2.712326    0.029385
C      -2.198984   -2.684024    0.011557
N      -1.069682   -2.061951    0.005066
H       0.969819    1.834782   -0.000875
H      -0.581306    1.823771   -0.868665
H      -0.564515    1.818505    0.896059
H      -4.338236   -0.034147    0.036422
H      -2.189714   -3.773929    0.008012
