17

O       0.169204    1.388168   -0.087003
C       0.028393    0.004263   -0.014990
C       0.278779   -0.636060    1.375026
O      -0.223962    0.224718    2.423643
C      -1.553224   -0.432418    2.384328
C      -2.600740    0.430369    1.732215
C      -2.521086    0.326553    0.402423
C      -1.438905   -0.630246   -0.023960
C      -1.061491   -1.396745    1.280130
H      -0.090878    1.716568    0.786139
H       0.648254   -0.445261   -0.796654
H       1.257861   -1.055566    1.615660
H      -1.795804   -0.821044    3.376237
H      -3.261540    1.087963    2.284021
H      -3.109365    0.897325   -0.307078
H      -1.669372   -1.208684   -0.919990
H      -1.200087   -2.471538    1.366244
