25

C       0.020184    1.575812   -0.078521
C       0.078044    0.044591   -0.040459
C       0.662743   -0.542985   -1.334815
C       0.387817   -2.051086   -1.419359
C       0.801018   -2.796996   -0.162409
C       2.189983   -2.633139    0.393711
C       1.009519   -2.033829    1.130145
C       0.793991   -0.513689    1.220689
C       2.097491    0.218787    1.584512
H       1.009157    2.018182   -0.237913
H      -0.625070    1.914202   -0.896246
H      -0.381931    1.987140    0.854135
H      -0.959623   -0.316392    0.017342
H       0.216513   -0.044568   -2.203257
H       1.740033   -0.337027   -1.392367
H      -0.690330   -2.194040   -1.573375
H       0.884319   -2.485180   -2.296578
H       0.366858   -3.788902   -0.069005
H       2.680105   -3.497421    0.829096
H       2.868683   -1.962999   -0.123525
H       0.733386   -2.565849    2.036209
H       0.103733   -0.349153    2.058219
H       2.820379    0.208470    0.762131
H       1.913754    1.263214    1.851719
H       2.574986   -0.265503    2.442093
