18

C      -0.006225    1.578325   -0.008321
C       0.095942    0.060131    0.041519
C       1.055703   -0.679238   -0.929697
C       1.368010   -1.674336    0.217800
O       2.700381   -2.065396    0.453452
C       0.825457   -0.647203    1.249937
C       1.906313    0.198559    1.876756
O       1.910280    0.523579    3.037752
H       0.977739    2.056231    0.031565
H      -0.491384    1.899320   -0.936440
H      -0.597807    1.963623    0.828818
H      -0.906965   -0.372109   -0.034712
H       0.644613   -1.074155   -1.862212
H       1.939530   -0.074159   -1.156684
H       0.698570   -2.544622    0.173822
H       2.962095   -2.693538   -0.227066
H       0.188966   -1.028573    2.050229
H       2.716717    0.529599    1.192971
