19

C       0.365632    1.545900    0.045975
O      -0.122511    0.257445   -0.273726
C       0.663930   -0.431085   -1.220135
C       2.003726   -0.753465   -0.698645
C       3.096893   -1.019517   -0.276310
C      -0.027510   -1.712284   -1.682756
O      -0.691747   -2.521651   -0.726727
C      -1.474292   -1.963841   -1.796877
C      -2.593486   -1.017909   -1.446927
H       1.365387    1.498948    0.496230
H       0.410183    2.191839   -0.844535
H      -0.333534    1.977418    0.765008
H       0.796550    0.195701   -2.122139
H       4.060558   -1.259822    0.100558
H       0.625759   -2.263687   -2.364122
H      -1.746938   -2.710251   -2.548353
H      -2.289658   -0.316894   -0.672890
H      -2.902126   -0.458270   -2.337382
H      -3.461194   -1.589071   -1.099761
