15

C       0.020048    1.512841    0.010212
O       1.198244    0.662594   -0.006364
C      -0.070358    0.062391    0.003032
C      -0.589389   -1.023538    0.956731
C      -1.831436   -1.092172    0.014282
C      -0.608564   -1.012891   -0.952103
C       0.096232   -2.044100   -0.010392
H      -0.128876    2.070311    0.933935
H      -0.147339    2.080559   -0.904059
H      -0.577494   -1.024260    2.046402
H      -2.367641   -2.043628    0.014361
H      -2.515562   -0.240062    0.025907
H      -0.618562   -1.001456   -2.041733
H       1.187336   -2.054023   -0.021408
H      -0.323721   -3.053237   -0.011802
