18

C       0.012565    1.510383    0.052186
C       0.004649    0.008344   -0.016887
C      -0.043977   -0.681441   -1.168682
C      -0.018442   -2.180609   -1.272317
C       0.544383   -2.833765   -0.005172
C      -0.104525   -2.228605    1.243174
C       0.033378   -0.711622    1.287205
O       0.120811   -0.107764    2.339011
H       0.911122    1.869773    0.563983
H      -0.025811    1.953542   -0.946178
H      -0.836534    1.879011    0.637002
H      -0.109044   -0.130608   -2.106172
H      -1.041206   -2.543175   -1.462965
H       0.563370   -2.477791   -2.152884
H       0.394378   -3.917864   -0.030606
H       1.627415   -2.662982    0.032561
H      -1.181536   -2.453768    1.246324
H       0.306928   -2.634137    2.170948
