24

C       0.130062    1.505063   -0.255189
C       0.018874    0.014800    0.077913
C      -1.409110   -0.527221   -0.049164
C      -1.519618   -2.020996    0.286935
C      -2.911177   -2.611942    0.105506
C      -3.987109   -2.059150    1.022734
C      -3.321965   -3.017070   -1.291480
C      -3.001526   -4.074674   -0.260000
H       1.160266    1.862134   -0.158192
H      -0.196991    1.706588   -1.281465
H      -0.495157    2.107768    0.413160
H       0.683841   -0.558871   -0.581640
H       0.383458   -0.160510    1.099001
H      -2.070278    0.053509    0.607070
H      -1.773609   -0.359985   -1.071928
H      -0.814237   -2.577343   -0.344432
H      -1.190780   -2.184029    1.323702
H      -4.153173   -0.988952    0.858329
H      -4.942536   -2.567477    0.858546
H      -3.715465   -2.195311    2.076678
H      -4.358805   -2.884539   -1.582769
H      -2.614543   -2.864854   -2.100513
H      -2.079117   -4.635000   -0.374144
H      -3.822769   -4.655283    0.147584
