20

C      -0.028046    1.566126   -0.037950
C      -0.052657    0.044940    0.075494
O      -0.122196   -0.477800    1.182956
C      -0.000557   -0.695907   -1.177722
C       0.043294   -2.053617   -1.320290
C       0.018289   -3.117585   -0.272853
N       0.175026   -2.424219   -2.639863
C      -0.117095   -1.273471   -3.504953
C       0.123217   -0.069837   -2.563439
H       0.859002    1.908086   -0.583360
H      -0.901875    1.930357   -0.590756
H      -0.030575    1.996761    0.963870
H      -0.840618   -3.784084   -0.422493
H       0.921638   -3.734790   -0.341741
H      -0.043794   -2.661868    0.713088
H      -0.150235   -3.338331   -2.917765
H       0.528067   -1.268682   -4.387381
H      -1.162028   -1.300810   -3.846598
H      -0.590649    0.736422   -2.754161
H       1.125811    0.351057   -2.723056
