12

O      -0.537712    0.572489    0.749198
C       0.261647    0.854335   -0.104474
C       1.285193    1.980984    0.016044
C       1.458435    2.521300    1.451849
O       2.835580    2.192084    1.774238
C       3.339857    1.616757    0.664962
N       2.614424    1.460511   -0.365628
H       0.320818    0.300291   -1.064105
H       0.982307    2.757978   -0.699447
H       1.340738    3.603676    1.532700
H       0.796629    2.019806    2.161120
H       4.379391    1.318784    0.745437
