18

C       0.128934    1.414193   -0.342641
C      -0.019830   -0.005457    0.158385
O       0.881787   -0.603041    0.715340
C      -1.327282   -0.668121   -0.065513
N      -1.669712   -1.866652    0.744517
C      -1.531982   -2.026732   -0.699584
C      -2.856537   -1.590303   -1.322935
C      -2.671562   -0.180559   -0.634286
O      -3.619883    0.240625    0.302096
H       1.125328    1.786145   -0.102980
H      -0.029897    1.458080   -1.426064
H      -0.631834    2.055753    0.116362
H      -0.789019   -2.146962    1.180980
H      -0.761573   -2.661437   -1.119951
H      -2.833051   -1.530908   -2.412930
H      -3.732823   -2.156807   -0.998998
H      -2.564798    0.620136   -1.369457
H      -3.593266   -0.413748    1.013444
