17

C      -0.188098    1.247221   -0.246095
N       0.098664   -0.169974   -0.134897
C       0.780966   -0.831577   -1.122563
O       1.056517   -0.359254   -2.203792
N       1.197130   -2.123480   -0.723705
C       0.304604   -3.145522   -0.213672
C       0.985783   -3.304302   -1.551664
C       0.195749   -3.259051   -2.752206
C      -0.457073   -3.272397   -3.760734
H       0.541704    1.864133    0.293872
H      -0.145887    1.508686   -1.303700
H      -1.187876    1.465778    0.141128
H       0.086878   -0.588444    0.780866
H       0.661115   -3.712146    0.642945
H      -0.764901   -2.951660   -0.239137
H       1.855422   -3.955481   -1.603563
H      -1.025667   -3.257060   -4.657496
