14

C      -0.397611   -0.635070   -1.113232
C      -0.109671    0.170535   -0.268668
C       0.268689    1.157807    0.736709
C       1.523736    1.914619    0.388060
N       2.072246    2.854407    1.125712
C       3.187105    3.261192    0.428147
C       3.309056    2.558065   -0.740640
N       2.233840    1.697045   -0.752787
H      -0.676860   -1.354959   -1.842578
H      -0.550149    1.873628    0.881567
H       0.407724    0.665472    1.707363
H       3.835611    4.035731    0.808390
H       4.030181    2.582913   -1.540123
H       1.994284    1.022229   -1.461155
