19

C      -0.182205    1.317770    0.098139
O      -0.143437   -0.085841    0.201319
C       0.866027   -0.542052    1.074631
C       0.807091   -2.051182    1.093941
C       1.401944   -2.936631    2.130076
C       1.314640   -2.315670    3.533326
C      -0.227897   -2.292462    3.346261
O      -1.133197   -2.081514    4.102230
C      -0.147330   -2.865978    1.962568
H       0.765859    1.726129   -0.287379
H      -0.985150    1.571771   -0.597724
H      -0.390059    1.793182    1.069697
H       1.858638   -0.212290    0.719088
H       0.725979   -0.114936    2.079637
H       0.858877   -2.465139    0.089017
H       2.032939   -3.778058    1.875110
H       1.567281   -3.020759    4.331037
H       1.837606   -1.373713    3.716986
H      -0.847337   -3.561316    1.516478
