17

C      -0.193890    1.504619    0.030959
C      -0.068268    0.004347   -0.005990
C       0.053998   -0.686751   -1.223508
C       0.067968    0.011639   -2.556320
C       0.163198   -2.069950   -1.134191
F       0.283367   -2.800019   -2.252726
C       0.151562   -2.725356    0.089451
N       0.035592   -2.067571    1.240843
C      -0.070439   -0.738667    1.175996
H       0.674192    1.994363   -0.425592
H      -1.077024    1.850037   -0.519149
H      -0.278422    1.863429    1.059532
H       0.170376   -0.703754   -3.372290
H      -0.854672    0.581923   -2.711607
H       0.896777    0.725708   -2.617897
H       0.239095   -3.808023    0.120858
H      -0.164164   -0.221396    2.128649
