21

C      -0.491655    1.382593    0.140774
C       0.080566   -0.008157   -0.028523
C       0.972927   -0.231847   -1.251853
C       1.792514   -1.487273   -0.897188
C       2.078701   -1.321243    0.609111
C       0.809112   -0.676176    1.183721
O       1.027149    0.170530    2.286513
C      -0.432288   -1.592451    1.246113
O      -0.960718   -1.032080    0.028408
H       0.307562    2.128295    0.188565
H      -1.143215    1.624682   -0.705345
H      -1.077218    1.451953    1.060487
H       0.379518   -0.342890   -2.163924
H       1.633996    0.633813   -1.382989
H       1.187705   -2.382857   -1.071732
H       2.705619   -1.587941   -1.489406
H       2.343258   -2.261941    1.104812
H       2.905953   -0.616832    0.759648
H       1.576363   -0.295382    2.925316
H      -0.264083   -2.674241    1.164532
H      -1.073903   -1.383950    2.111892
