18

C      -0.063357    1.504191   -0.089271
C      -0.002310   -0.022647   -0.025560
C       0.732865   -0.510099    1.240915
O       0.115871   -0.042610    2.414847
C       0.791153   -2.026578    1.275434
O       0.216080   -2.697106    2.095080
O       1.554015   -2.523512    0.264565
C       1.686448   -3.891865    0.155791
N       2.382393   -4.334261   -0.790801
H       0.941349    1.936523   -0.152456
H      -0.625658    1.833302   -0.967824
H      -0.549207    1.905629    0.803254
H      -1.017199   -0.439233   -0.012638
H       0.507037   -0.427590   -0.906186
H       1.768777   -0.140537    1.206210
H      -0.278064   -0.815471    2.843781
H       1.150664   -4.432118    0.935848
H       2.403989   -5.352680   -0.759513
