20

C      -0.051708    1.572104   -0.011940
C       1.499507    1.530901    0.030422
C       1.407285    0.070247    0.563492
C      -0.054909    0.020309    0.029009
C       2.406574   -0.957526    0.077726
C       3.816731   -0.922310    0.715565
O       3.637848   -2.225188    1.306219
C       2.330858   -2.366576    0.714487
H      -0.469719    2.001387    0.903111
H      -0.523684    2.058575   -0.868490
H       1.929158    1.556500   -0.976892
H       2.017890    2.269614    0.646575
H       1.398378    0.078387    1.660844
H      -0.808719   -0.477300    0.644003
H      -0.091837   -0.407520   -0.978729
H       2.423237   -0.973858   -1.016529
H       4.659480   -0.903011    0.012824
H       3.972445   -0.144017    1.474697
H       1.547890   -2.500686    1.472937
H       2.288164   -3.207924    0.011099
