21

C       0.112780    1.434716    0.009296
C       0.091364   -0.084548   -0.201540
C      -1.310286   -0.620808   -0.358359
C      -1.723690   -1.924433    0.173745
O      -2.093514   -0.714141    0.836951
C       1.527332    1.997194    0.198309
C       1.528266    3.495474    0.377048
C       2.585531    4.357043   -0.164579
O       1.309625    4.277391   -0.802659
H      -0.353101    1.934743   -0.848887
H      -0.502719    1.677342    0.884417
H       0.673803   -0.345551   -1.095790
H       0.568269   -0.587146    0.648940
H      -1.866466   -0.227412   -1.212324
H      -2.540888   -2.471028   -0.295314
H      -0.996832   -2.542142    0.700487
H       1.998897    1.534327    1.076045
H       2.149346    1.745083   -0.669389
H       0.979383    3.860800    1.248035
H       2.812270    5.309039    0.313844
H       3.411754    3.908179   -0.715234
