18

C       0.060930    1.463921    0.093247
C      -0.043696   -0.030461   -0.075186
C       0.836117   -0.761600   -1.126689
N       0.516365   -2.215166   -0.908914
C      -0.527662   -2.113312   -0.199205
O      -0.516050   -2.364666    1.181009
C      -0.655531   -0.869178    1.189492
C      -1.341438   -0.774987   -0.097279
C      -2.735310   -0.451637   -0.536743
H       1.062275    1.751055    0.432070
H      -0.127449    1.976906   -0.857434
H      -0.661409    1.846094    0.821742
H       0.643981   -0.374351   -2.140007
H       1.910255   -0.674573   -0.930401
H      -0.838729   -0.439483    2.168169
H      -3.018908    0.555448   -0.214033
H      -2.824373   -0.490727   -1.627367
H      -3.456864   -1.157482   -0.112924
