14

C      -0.168293   -1.277402   -0.167626
C      -0.087943   -0.081221   -0.092768
C       0.000765    1.362039    0.001146
C      -0.274028    2.000209    1.436179
N       1.102759    2.523615    1.333760
N       2.096101    3.253223    1.860576
N       3.058671    3.175635    0.967002
C       2.683657    2.416212   -0.111520
C       1.397616    1.995280    0.139491
H      -0.233273   -2.335556   -0.235543
H      -0.605335    1.838075   -0.775370
H      -1.040603    2.776095    1.466909
H      -0.409757    1.277241    2.240678
H       3.353844    2.247504   -0.936477
