24

C       0.143181    1.509471   -0.136987
C      -0.035903    0.005635    0.098398
C      -1.491284   -0.526777    0.118194
C      -2.297466    0.125958    1.255452
C      -2.189493   -0.276524   -1.229122
C      -1.379412   -2.053495    0.370886
N      -2.644836   -2.768589    0.434879
C      -3.084930   -3.594978   -0.551979
O      -2.514606   -3.801937   -1.602230
H       1.206876    1.767338   -0.131521
H      -0.263220    1.823932   -1.102743
H      -0.340245    2.108172    0.641046
H       0.516339   -0.540288   -0.677952
H       0.442298   -0.260031    1.051318
H      -2.406437    1.203378    1.103180
H      -3.308981   -0.290900    1.309429
H      -1.814087   -0.026512    2.227974
H      -1.627516   -0.722047   -2.055991
H      -3.190497   -0.717167   -1.237104
H      -2.300637    0.793703   -1.426379
H      -0.810254   -2.518937   -0.437767
H      -0.834701   -2.223786    1.308160
H      -3.200886   -2.704073    1.271938
H      -4.048966   -4.073104   -0.284695
