17

C      -0.043790    1.512742   -0.028915
N       0.046505    0.066441    0.045174
C      -1.004235   -0.636599    0.143907
C      -0.926991   -2.151707    0.222718
C       0.429711   -2.676317    0.173648
C       1.520779   -3.175534    0.138417
N      -2.299752   -0.072973    0.187276
C      -3.535290   -0.674923    0.290072
O      -3.760463   -1.858166    0.367237
H       0.962300    1.930035   -0.108647
H      -0.610381    1.856131   -0.908958
H      -0.510037    1.953521    0.866502
H      -1.434436   -2.483045    1.136157
H      -1.533376   -2.577752   -0.584975
H       2.494461   -3.597083    0.105651
H      -2.325555    0.934530    0.133630
H      -4.336706    0.089895    0.293920
