18

N      -0.088052    0.972832   -1.012096
C      -0.013553    0.066111   -0.116719
O      -1.210274   -0.276531    0.433145
C      -1.403864   -1.251747    1.446211
C      -0.497409   -1.119749    2.695684
C       0.457099   -2.174940    2.049465
C      -0.759964   -2.636379    1.184655
C       1.500147   -1.511772    1.202987
C       1.264748   -0.561581    0.290741
H       0.840333    1.176247   -1.376782
H      -2.481544   -1.230469    1.612303
H      -0.085977   -0.133414    2.916849
H      -1.003238   -1.515735    3.580092
H       0.901122   -2.915680    2.715759
H      -1.333702   -3.425892    1.676884
H      -0.567188   -2.913068    0.146696
H       2.529859   -1.829941    1.343405
H       2.111187   -0.160105   -0.258753
