20

C      -0.007315    1.488752   -0.013898
C       0.020472   -0.016611   -0.009769
N       0.061857   -0.729925    1.052109
O       0.077935    0.069472    2.207645
C      -0.000263   -0.756379   -1.295653
C       1.042254   -0.658631   -2.463532
C      -0.027055   -1.682230   -2.936893
C       0.021886   -2.295115   -1.506891
C      -1.105986   -0.697361   -2.406610
H       0.876162    1.887542    0.494829
H      -0.041024    1.881795   -1.031356
H      -0.877237    1.855287    0.540427
H       0.108860   -0.590630    2.907960
H       1.088566    0.290591   -3.005134
H       2.040900   -1.048649   -2.248515
H      -0.042461   -2.220346   -3.884468
H       0.942299   -2.808587   -1.218842
H      -0.862901   -2.841128   -1.171019
H      -2.077156   -1.122889   -2.139414
H      -1.215059    0.249059   -2.944099
