17

O      -0.050283   -0.020476   -0.565731
C      -0.031693    1.093391   -0.102017
C       1.211696    1.883828    0.079350
C       1.142897    3.373274   -0.147096
N       1.370239    2.858528    1.176326
C       0.341634    3.024216    2.172997
C       0.522303    2.281601    3.466936
C       0.739767    3.775099    3.415873
H      -0.970213    1.602581    0.209186
H       2.118218    1.346368   -0.185225
H       1.978600    3.865905   -0.636744
H       0.163081    3.794087   -0.375490
H      -0.678587    3.176210    1.820776
H      -0.360796    1.896980    3.964061
H       1.401751    1.653606    3.548392
H       1.762572    4.130181    3.459206
H       0.005412    4.425789    3.876997
