21

C      -0.314047    1.559535    0.041550
C       0.053848    0.100922    0.083312
C      -1.050546   -0.989882    0.058434
C      -0.335715   -1.735408    1.229032
C       0.778745   -0.655224    1.245261
C       1.871651   -0.866350    0.212209
C       3.348946   -0.690484    0.340571
C       2.754509   -2.040935   -0.047781
O       1.136385   -0.223097   -0.834636
H       0.563324    2.187572    0.222055
H      -0.720287    1.817757   -0.943296
H      -1.074420    1.792150    0.794034
H      -2.047038   -0.619828    0.315135
H      -1.103798   -1.523139   -0.892760
H      -0.925299   -1.754558    2.148395
H       0.006949   -2.751226    1.017382
H       1.060408   -0.203400    2.196713
H       3.846655   -0.123811   -0.439250
H       3.776622   -0.576985    1.331824
H       2.776976   -2.847949    0.677902
H       2.868253   -2.354957   -1.079813
