19

C      -0.318922    1.582973    0.557344
C      -0.096763    0.080896    0.473881
O       0.442078   -0.286319   -0.828042
C       1.595021   -1.015576   -0.500193
C       1.385730   -1.877864    0.776304
O       2.781111   -1.686998    1.167841
C       2.363787   -0.357097    0.691032
C       3.365517    0.753092    0.720586
C       0.964357   -0.513217    1.392560
H       0.622584    2.132456    0.472173
H      -0.979525    1.910087   -0.250578
H      -0.788555    1.846698    1.510809
H      -1.058036   -0.437049    0.599771
H       2.115109   -1.397997   -1.376386
H       0.942253   -2.864355    0.906203
H       4.276032    0.447525    0.195566
H       2.965912    1.642039    0.223964
H       3.632542    1.017872    1.748287
H       0.882521   -0.405503    2.473159
