14

C       0.052223   -1.189237    0.025051
C       0.025994    0.011703    0.030340
C       0.005991    1.446890    0.050007
C      -1.057871    2.085272   -0.687247
N      -1.893910    2.623470   -1.278151
C       0.448425    2.260817    1.292095
C       1.625119    1.542002    1.941546
O       2.358013    1.557862    0.677342
C       1.312341    2.280011    0.074931
H       0.073038   -2.251174    0.005970
H      -0.205284    2.999868    1.732632
H       2.142983    2.155063    2.684343
H       1.461564    0.527630    2.314193
H       1.535804    3.014071   -0.689648
