19

C      -0.011235    1.527732    0.010617
C       0.032103    0.019680    0.042994
C       1.049624   -0.834655   -0.785711
C       0.570094   -1.928973    0.208437
C       0.519543   -0.805519    1.281316
O      -0.807453   -2.119383   -0.142161
C      -1.260804   -0.753253   -0.277675
C       1.274990   -3.234899    0.407570
O       2.439908   -3.314571    0.707715
H       0.965320    1.956768    0.255060
H      -0.298821    1.893610   -0.981735
H      -0.738407    1.917769    0.732023
H       0.843890   -1.012276   -1.844261
H       2.087878   -0.543683   -0.623690
H       1.509617   -0.511903    1.631212
H      -0.171337   -0.956463    2.114567
H      -2.071375   -0.553157    0.433378
H      -1.627878   -0.577528   -1.296025
H       0.638120   -4.133265    0.256569
