12

C      -0.040846    1.555540    0.049148
C       0.014066    0.017093   -0.019483
C       0.690877   -0.479050   -1.208304
C       1.256586   -0.877009   -2.201725
C       1.892048   -1.324435   -3.318922
C       2.455189   -1.723411   -4.310062
H       0.966257    1.980182    0.057223
H      -0.574138    1.964009   -0.813055
H      -0.558213    1.872750    0.959004
H       0.521351   -0.374141    0.872068
H      -1.005023   -0.390191    0.009707
H       2.950721   -2.072552   -5.181372
