18

C      -0.047287    1.430595    0.241563
C       0.010254   -0.016688    0.090584
C       0.078467   -1.212201   -0.038789
C       0.108507   -2.663628   -0.185636
C      -1.300037   -3.272986   -0.206394
C      -1.400618   -4.816713   -0.025110
C      -2.168458   -4.498965    1.284684
O      -2.683764   -5.133133    2.164479
N      -2.042718   -3.150466    1.051137
H       0.644851    1.928843   -0.446094
H      -1.052312    1.813752    0.033105
H       0.219310    1.736498    1.259176
H       0.624478   -2.941079   -1.114355
H       0.676472   -3.114674    0.638494
H      -1.856201   -2.887210   -1.067625
H      -1.990661   -5.345270   -0.775271
H      -0.449135   -5.331073    0.125420
H      -2.337154   -2.339793    1.575278
