23

C      -0.117726    1.551109   -0.252821
C       0.128058    0.043249   -0.158901
C       0.443854   -0.428326    1.266990
C       0.695238   -1.930655    1.343710
C       2.028630   -2.488723    0.795538
O       2.292880   -3.199971    2.025121
C       1.138889   -2.598091    2.674071
C       1.611630   -1.743980    3.841501
O       2.353463   -2.545225    4.741579
H       0.760578    2.117285    0.076390
H      -0.343891    1.855098   -1.279428
H      -0.960717    1.854601    0.377916
H      -0.752545   -0.497589   -0.529976
H       0.956072   -0.234470   -0.824756
H       1.317210    0.120744    1.641038
H      -0.392628   -0.162206    1.927443
H      -0.161890   -2.460619    0.916932
H       1.969646   -3.169209   -0.061005
H       2.793520   -1.726595    0.590512
H       0.467687   -3.378665    3.053662
H       2.213268   -0.896716    3.477460
H       0.758549   -1.337295    4.395899
H       3.007451   -3.003718    4.198479
