15

C       0.136185   -1.145086   -0.325367
C       0.034378    0.038409   -0.140395
C      -0.093467    1.478960    0.092951
C      -0.649582    1.807993    1.516499
C       0.396585    2.780432    2.094023
C       1.648622    2.400884    1.301560
O       1.172683    2.140920   -0.013144
H       0.228652   -2.188718   -0.498696
H      -0.729930    1.907838   -0.689400
H      -1.650612    2.239956    1.463103
H      -0.710029    0.895243    2.112701
H       0.123684    3.818144    1.879683
H       0.521274    2.674970    3.174525
H       2.393910    3.197086    1.229974
H       2.131272    1.507479    1.728781
