16

C      -0.083089    1.583350   -0.022190
C       0.022800    0.049993    0.019461
C       0.836271   -0.496833   -1.165645
O       0.684736   -0.311154   -2.345667
N       1.853992   -1.278351   -0.598503
C       1.783274   -1.271606    0.778171
C       0.745803   -0.523181    1.218328
C       0.388226   -0.340286    2.607884
O      -0.557812    0.314085    3.001803
H       0.905663    2.045507    0.056186
H      -0.535760    1.896694   -0.966205
H      -0.694016    1.929923    0.812732
H      -0.988820   -0.369843   -0.053197
H       2.551062   -1.748798   -1.153464
H       2.504404   -1.828093    1.362693
H       1.062617   -0.861561    3.325882
