19

C      -0.265872    1.417950   -0.128547
C       0.217704   -0.028683   -0.018088
C       1.172079   -0.418902   -1.117065
C       1.502746   -1.682846   -1.431863
C       1.071504   -2.840164   -0.663749
C       0.963958   -2.843475    0.676212
C       1.411283   -1.719771    1.566621
C       0.750916   -0.341585    1.392207
O       0.671356    0.436700    2.306421
H       0.573027    2.115117   -0.039439
H      -0.752722    1.586632   -1.093248
H      -0.971840    1.654106    0.669698
H      -0.643338   -0.716775   -0.089117
H       1.561003    0.399001   -1.718928
H       2.100660   -1.863765   -2.322533
H       0.847829   -3.752692   -1.212235
H       0.601464   -3.738614    1.173891
H       1.344822   -1.981477    2.624385
H       2.472972   -1.509892    1.358124
