18

N      -0.183247    1.466031    0.602355
C      -0.073240    0.150624   -0.021008
C       0.729040   -0.858222    0.801765
O      -0.127565   -1.141525    1.904856
C      -1.463677   -1.226952    1.416284
C      -1.498500   -0.544863    0.005042
N      -2.651144    0.341374   -0.134033
C      -1.538868   -1.561431   -1.052628
N      -1.545537   -2.351274   -1.896763
H      -0.094540    1.377266    1.611035
H       0.555519    2.080678    0.282435
H       0.284999    0.262211   -1.046119
H       0.950170   -1.766604    0.220065
H       1.665007   -0.453315    1.195385
H      -1.791835   -2.271486    1.363580
H      -2.127740   -0.684007    2.093920
H      -2.353135    1.247273    0.231395
H      -2.859925    0.485640   -1.117683
