16

O      -0.052368    1.311480   -0.042367
N       0.044104   -0.087635    0.099309
C      -1.089072   -0.634535    0.163862
C      -2.583230   -0.369006    0.006506
C      -2.567444   -1.601900   -0.939168
C      -1.505466   -2.101761    0.126517
O      -0.649252   -3.169551   -0.018337
C      -2.401915   -2.143148    1.379040
O      -3.134159   -0.904411    1.224111
H       0.873587    1.577882   -0.050433
H      -3.018272    0.594571   -0.234193
H      -3.501868   -2.162855   -1.013180
H      -2.127217   -1.399967   -1.917105
H       0.070064   -2.903231   -0.601873
H      -3.088271   -2.996574    1.382725
H      -1.820411   -2.133753    2.306646
