17

C      -1.628117   -0.734190   -0.411665
N      -0.239523   -0.376086   -0.117477
C       0.741004   -0.675972   -1.117244
C       2.117507   -1.062253   -0.627389
C       1.210563   -2.104342   -1.226750
C       0.680344    0.135821   -2.393360
F       0.721663    1.454161   -2.121085
F       1.698623   -0.134511   -3.227984
F      -0.457620   -0.081093   -3.078787
H      -2.082857   -0.181012   -1.244280
H      -1.678125   -1.800751   -0.651589
H      -2.229156   -0.565944    0.486891
H      -0.168535    0.596892    0.158422
H       2.976316   -0.742059   -1.203912
H       2.242816   -1.059554    0.448029
H       0.735347   -2.810631   -0.557097
H       1.454816   -2.488131   -2.209847
