19

C       0.788270   -0.187554   -1.337417
N       0.046633   -0.034488   -0.084451
C       0.671005   -0.661882    1.067282
C       1.973126    0.037296    1.415056
O       3.013101   -0.477225    1.746389
C      -0.256412   -1.036152    2.296231
C      -0.936350   -2.102102    1.402444
C       0.597303   -2.220088    1.199961
N       0.712318   -2.120377    2.711912
H       0.822944   -1.247593   -1.608546
H       0.258165    0.342140   -2.133400
H       1.826594    0.182876   -1.311071
H      -0.129790    0.947835    0.102588
H       1.899337    1.148530    1.311265
H      -0.708369   -0.349524    3.014805
H      -1.379510   -2.928593    1.956931
H      -1.529824   -1.748263    0.564375
H       1.161084   -2.959683    0.630715
H       1.621771   -1.726059    2.958202
