19

C       0.039214    1.355934   -0.011382
C       0.000609   -0.132449    0.049660
O       0.985197   -0.884887   -0.691163
C       0.147401   -2.055724   -0.451822
C       0.369059   -2.302102    1.064535
O       1.687293   -2.430184    1.506601
C      -0.393432   -0.988421    1.263772
C      -1.085263   -1.148968   -0.102055
C      -2.515384   -1.118743   -0.531760
H       0.962736    1.739027    0.436059
H      -0.013016    1.707868   -1.046403
H      -0.804177    1.779748    0.541684
H       0.246539   -2.825707   -1.214579
H      -0.202416   -3.159414    1.429153
H       2.187848   -1.782018    0.991639
H      -0.794978   -0.564112    2.176016
H      -3.035331   -0.267139   -0.080225
H      -2.605746   -1.026348   -1.619817
H      -3.048080   -2.026466   -0.226747
