18

O      -0.086362   -0.123483    0.327929
C      -0.052225    1.071545    0.217100
C       1.219768    1.901146    0.042072
C       1.424116    2.856229    1.243365
C       2.286514    2.017661    2.203140
C       3.222723    1.244574    1.263658
N       2.434151    1.107267    0.034993
C       2.764489    0.209537   -0.930936
O       3.753054   -0.492879   -0.900202
H      -0.981326    1.688352    0.232648
H       1.092853    2.471119   -0.889686
H       1.965694    3.746649    0.911082
H       0.477800    3.186328    1.680272
H       2.829150    2.629278    2.926615
H       1.655310    1.318597    2.761237
H       4.147214    1.799359    1.059969
H       3.507544    0.259089    1.638434
H       2.036443    0.198414   -1.765314
