21

C       1.309955    1.728874   -0.012091
C       1.470645    0.219053   -0.166725
C       0.698955   -0.360716   -1.348003
O      -0.039842    0.323173   -2.024083
C       0.911884   -1.838146   -1.599504
C       0.218806   -2.562184   -2.790341
C       1.207858   -1.839182   -3.756200
C       2.070010   -2.320463   -2.554391
C       1.303960   -3.670756   -2.641825
H       1.675618    2.253462   -0.898833
H       0.257532    1.996384    0.109638
H       1.864989    2.091547    0.857626
H       2.526409   -0.064594   -0.279134
H       1.134026   -0.308014    0.737486
H       0.895094   -2.379918   -0.645664
H      -0.854112   -2.697115   -2.924884
H       1.400826   -2.343881   -4.706660
H       1.070906   -0.767715   -3.889055
H       3.140028   -2.174428   -2.396611
H       1.271424   -4.281855   -1.735253
H       1.499349   -4.277577   -3.529746
