14

N      -0.095355    1.386623    0.072025
C       0.054867    0.037670   -0.196122
O       1.093346   -0.473006   -0.525603
N      -1.166652   -0.672453   -0.100957
C      -2.460454   -0.122115   -0.179054
C      -3.344189   -1.125550   -0.049429
N      -2.626636   -2.301814    0.121728
C      -1.255095   -2.079058    0.096564
O      -0.374275   -2.887442    0.245206
H       0.788787    1.870377    0.122116
H      -0.769074    1.663177    0.769869
H      -2.617083    0.918264   -0.399316
H      -4.419795   -1.109611   -0.087454
H      -3.000304   -3.222284    0.270877
