18

C      -0.049456    1.573678    0.047926
C      -0.005037    0.029430    0.011170
C       0.805164   -0.494406   -1.180484
C       1.811858   -1.287863   -0.815723
C       1.886568   -1.397929    0.670115
N       2.163615   -0.078733    1.314765
C       0.777570   -0.568380    1.203299
C      -1.364639   -0.516150   -0.023620
C      -2.482099   -0.959982   -0.048908
H       0.967229    1.960203    0.140357
H      -0.506484    1.967373   -0.864184
H      -0.643322    1.918714    0.899199
H       0.556870   -0.197175   -2.192728
H       2.518149   -1.760961   -1.487173
H       2.236454   -2.300877    1.158295
H       2.479549   -0.237782    2.270455
H       0.229709   -0.830589    2.101088
H      -3.467195   -1.355474   -0.075955
