17

C      -0.004431    1.422205   -0.009902
C       0.017684   -0.029505    0.020881
C       0.017025   -1.236433    0.042671
C       0.025388   -2.678752    0.080974
O      -1.021450   -3.323173    0.125258
C       1.344810   -3.332921    0.026926
C       1.503839   -4.679560    0.748044
C       1.389090   -4.694606   -0.728726
O       0.278243   -5.171430   -1.385403
H       0.993051    1.843822    0.150779
H      -0.371265    1.780318   -0.978160
H      -0.671956    1.817887    0.763039
H       2.207656   -2.682091   -0.039684
H       2.465110   -4.866443    1.213668
H       0.636037   -5.004590    1.312716
H       2.287896   -4.858071   -1.314545
H      -0.501427   -4.829224   -0.911959
