18

C       0.249500    1.575620    0.105638
C       0.053860    0.043527    0.021108
C       0.696568   -0.638614    1.250170
C      -1.465964   -0.326846   -0.064559
C      -2.278194    0.184986    1.105759
O      -2.652790   -0.501104    2.023102
C       0.696642   -0.453271   -1.199463
C       1.221246   -0.860676   -2.201598
H       1.314372    1.820188    0.074153
H      -0.238265    2.083832   -0.731163
H      -0.159871    1.970749    1.040398
H       0.215789   -0.301991    2.173224
H       0.595639   -1.725289    1.190114
H       1.761304   -0.396521    1.303826
H      -1.873924    0.101428   -0.987581
H      -1.568978   -1.414213   -0.104059
H      -2.523203    1.270886    1.075982
H       1.688425   -1.221051   -3.084646
