18

O      -0.050927    1.462227   -0.038402
C       0.038198    0.045937   -0.008738
C      -1.378688   -0.511698    0.001649
C      -1.409716   -2.040598    0.042958
C      -2.844695   -2.602059   -0.005038
O      -3.551706   -2.172283   -1.166316
C      -2.844618   -4.063688    0.111934
C      -2.817324   -5.264631    0.163282
H       0.841582    1.819823   -0.043927
H       0.582489   -0.338278   -0.887695
H       0.583451   -0.300336    0.885205
H      -1.907195   -0.100894    0.870956
H      -1.910789   -0.156229   -0.885718
H      -0.847996   -2.460559   -0.802513
H      -0.924398   -2.414318    0.952899
H      -3.411852   -2.177916    0.833308
H      -3.208574   -2.673484   -1.914717
H      -2.811073   -6.325051    0.223465
