20

C      -0.322662    1.494374    0.015056
C       0.050676    0.025089    0.001535
C       1.201782   -0.467912   -0.928303
C       1.809015   -1.209737    0.301462
C       1.784876   -2.721384    0.277421
C       2.960744   -0.505688    1.062584
C       1.833431    0.287126    1.760890
O       1.778993    1.261319    2.456335
N       0.803671   -0.512156    1.198527
H       0.554922    2.137080    0.123130
H      -0.826473    1.751578   -0.922779
H      -1.003231    1.716691    0.841963
H      -0.850919   -0.583080   -0.124007
H       0.909673   -1.099957   -1.769968
H       1.827680    0.348743   -1.300613
H       2.554440   -3.106222   -0.401440
H       1.972470   -3.130398    1.275040
H       0.815330   -3.096636   -0.066079
H       3.547797   -1.156204    1.716933
H       3.640248    0.119826    0.479214
