18

C      -0.218404    1.518444    0.151017
C       0.081800    0.028306    0.041611
C       0.698077   -0.522104   -1.253556
C       2.129742   -0.096436   -1.416201
C       1.809165   -1.222291   -0.472915
C       1.245555   -0.656708    0.859012
C       2.265959    0.125688    1.637283
O       2.482202    1.309443    1.537477
H       0.652061    2.132592   -0.080524
H      -1.027298    1.782061   -0.540298
H      -0.544822    1.781952    1.162357
H      -0.830790   -0.533413    0.266929
H       0.126402   -0.908955   -2.088879
H       2.596157   -0.403436   -2.346760
H       2.481338    0.857499   -1.034205
H       2.211556   -2.220136   -0.593101
H       0.867454   -1.461674    1.496889
H       2.890794   -0.503694    2.315641
