14

C      -0.010041   -1.224069   -0.041177
C      -0.049872   -0.023262   -0.020763
C      -0.037293    1.438264    0.017950
C      -0.219392    2.024550    1.467445
C       1.316726    2.194306    1.478972
N       1.318901    2.052819    0.001908
C      -0.938173    1.983740   -1.011017
N      -1.656725    2.430131   -1.797626
H       0.012420   -2.286065   -0.067632
H      -0.759710    2.970622    1.446891
H      -0.666521    1.346554    2.191387
H       1.709434    3.152200    1.829170
H       1.822951    1.381039    2.013014
H       2.037100    1.457176   -0.396251
