14

C      -0.010663    1.447835    0.005789
N      -0.005613   -0.013543   -0.017462
C      -0.147164   -0.710581   -1.178563
N      -0.152679   -2.001642   -1.279034
C      -0.002679   -2.702747   -0.111615
C       0.144893   -2.099575    1.093498
F       0.288735   -2.799080    2.211838
C       0.154702   -0.655505    1.234619
O       0.279733   -0.015811    2.260710
H       0.929540    1.815260    0.422270
H      -0.140719    1.819375   -1.010931
H      -0.822200    1.805573    0.642843
H      -0.262563   -0.105570   -2.073748
H      -0.005599   -3.786074   -0.182315
