17

O      -0.156533    1.370160    0.144983
N       0.036957   -0.017746    0.023575
C      -1.068414   -0.618639   -0.080119
C      -2.534791   -0.255388   -0.149822
N      -2.795479   -1.652520   -0.588302
C      -3.893170   -2.348492    0.064639
C      -3.985531   -3.741912   -0.361316
C      -4.045660   -4.894538   -0.694233
C      -1.409022   -2.080763   -0.249362
H       0.747715    1.698400    0.194147
H      -2.953065   -0.002389    0.838562
H      -2.829280    0.517774   -0.866437
H      -3.807798   -2.318012    1.170476
H      -4.824311   -1.825076   -0.187714
H      -4.106516   -5.911019   -0.995598
H      -0.897635   -2.638451   -1.039046
H      -1.335329   -2.648204    0.692033
