15

C      -0.024096   -1.171914   -0.006222
C       0.013514    0.027377    0.000933
C       0.015861    1.480376    0.009940
O       1.363836    1.949287    0.003725
C       1.540560    3.285712    0.005599
C       2.732408    3.979561   -0.007813
C       2.335694    5.333586    0.002802
N       1.017415    5.486325    0.021056
N       0.542895    4.209939    0.022688
H      -0.049421   -2.233945   -0.012623
H      -0.517667    1.862249   -0.873803
H      -0.505600    1.850825    0.905712
H       3.722078    3.556598   -0.022880
H       2.969925    6.208362   -0.002426
H      -0.450718    4.065769    0.035431
