15

C      -0.019279   -1.143947   -0.004093
C       0.021578    0.055939    0.002797
C       0.025421    1.510241    0.011668
O       1.380784    1.971534   -0.001449
C       1.525006    3.309978    0.005091
N       0.496340    4.147921    0.022339
N       1.082841    5.371815    0.022984
C       2.433700    5.309693    0.006713
C       2.773615    3.975253   -0.005492
H      -0.050168   -2.205392   -0.010258
H      -0.509115    1.908743   -0.860144
H      -0.488400    1.897949    0.900632
H       0.497992    6.188228    0.034859
H       3.041788    6.200690    0.005049
H       3.756256    3.536420   -0.019739
