23

C      -0.521804    1.341452   -0.034338
C       0.090932   -0.061134    0.002987
C       1.177873   -0.242019   -1.050437
O       0.699029   -0.338215    1.262095
C      -0.192845   -0.557825    2.343759
C       0.605739   -1.225417    3.433623
O       1.205947   -2.418165    3.013119
C       1.334034   -0.386483    4.456783
C       0.120049   -1.211135    4.845971
H       0.246878    2.095400    0.164301
H      -0.957034    1.541590   -1.018555
H      -1.316577    1.456402    0.708311
H      -0.707408   -0.802691   -0.170981
H       1.988203    0.475836   -0.888257
H       1.597647   -1.250379   -0.999477
H       0.772602   -0.084964   -2.054265
H      -0.631211    0.382562    2.708226
H      -1.014474   -1.218986    2.023163
H       1.662721   -2.194595    2.192000
H       2.302765   -0.751230    4.777307
H       1.237153    0.693257    4.417166
H      -0.807863   -0.698026    5.076392
H       0.292955   -2.115475    5.417908
