18

N      -0.017077    1.294875   -0.247398
C      -0.041751    0.038723   -0.087228
O       1.068526   -0.743389    0.159552
C       0.671506   -2.106861    0.285097
C      -0.827201   -2.109415    0.089375
C      -1.207559   -0.842674   -0.124993
C      -1.667238   -3.311883    0.135761
C      -1.170198   -4.652094   -0.387493
C      -1.361705   -4.461787    1.085085
H       0.938454    1.645646   -0.168157
H       1.199398   -2.704876   -0.469888
H       0.971084   -2.477767    1.274540
H      -2.206081   -0.471972   -0.303710
H      -2.721245   -3.112382   -0.027075
H      -1.881635   -5.261888   -0.932313
H      -0.157486   -4.703177   -0.770891
H      -0.480326   -4.382447    1.711242
H      -2.206742   -4.938930    1.567867
