17

C      -0.116223    1.567943    0.069421
C       0.096919    0.075491   -0.006527
C       0.294765   -0.522111   -1.202162
C       0.268193   -1.967486   -1.544054
O      -0.159838   -2.344508   -2.606437
O       0.700001   -2.890263   -0.646166
C       1.493128   -2.458258    0.468917
C       0.671954   -1.781521    1.525111
C       0.036013   -0.631808    1.272458
H       0.615774    2.034599    0.738893
H      -0.040387    2.039571   -0.912181
H      -1.107427    1.791591    0.482596
H       0.279975    0.091084   -2.097709
H       1.962418   -3.368629    0.844342
H       2.281824   -1.783360    0.107775
H       0.602728   -2.243834    2.504571
H      -0.528277   -0.145685    2.064923
