15

C      -0.054459    1.559277    0.024801
C       0.079054    0.033021    0.000198
N       0.831577   -0.375611   -1.174801
C       1.888173   -1.073973   -1.080921
C       2.645677   -1.475943   -2.247200
N       3.690483   -2.220926   -2.207443
O       4.105057   -2.650272   -0.971574
N       3.420248   -2.230798    0.250244
N       2.427288   -1.521726    0.173314
H       0.923307    2.033088    0.153170
H      -0.491209    1.924544   -0.908398
H      -0.694780    1.865938    0.856887
H       0.512096   -0.333503    0.937122
H      -0.920401   -0.408880   -0.103746
H       2.329286   -1.140948   -3.230136
