14

C      -0.250819    1.323618    0.604224
O      -0.201942   -0.084411    0.686665
C       1.059143   -0.614910    0.386585
C       0.994910   -2.134064    0.605688
O       2.174985   -2.776627    0.168474
C       0.696033   -2.451464    2.016414
N       0.522661   -2.706570    3.129782
H      -0.015772    1.678804   -0.410698
H      -1.268034    1.626204    0.860435
H       0.451256    1.793962    1.308978
H       1.343811   -0.439548   -0.662778
H       1.844734   -0.179651    1.028199
H       0.182942   -2.531428   -0.011616
H       2.888653   -2.553043    0.777027
