18

C      -0.234354    1.383010   -0.068835
N       0.036690   -0.043932   -0.087078
C       0.516342   -0.562582    0.975181
C       0.872954   -2.031806    0.982489
O       0.536119   -2.680024    2.219828
C       0.916378   -2.070275    3.372994
N       0.805533   -2.611458    4.509933
C       1.481809   -0.673353    3.223696
N       0.774712    0.045840    2.177202
H       0.660027    1.985480    0.164790
H      -0.591217    1.698300   -1.052195
H      -1.010798    1.650139    0.665916
H       0.313730   -2.539227    0.199164
H       1.947165   -2.161637    0.788022
H       0.437103   -3.560302    4.415227
H       1.362944   -0.162295    4.178476
H       2.563023   -0.744729    3.019854
H       0.699346    1.046326    2.247382
