21

C      -0.127193    1.589031   -0.039961
C       0.011800    0.061985    0.068549
C       0.780146   -0.520357   -1.128201
O       0.559193   -0.272152   -2.285688
C       1.884164   -1.433674   -0.594385
C       1.793294   -1.272579    0.904093
C       2.766697   -1.993600    1.784467
C       0.782888   -0.463507    1.264023
C       0.359863   -0.081872    2.649712
H       0.849351    2.078095    0.039284
H      -0.560085    1.847441   -1.009872
H      -0.773383    1.988466    0.746682
H      -1.003030   -0.367786    0.048162
H       1.713039   -2.467230   -0.928711
H       2.856115   -1.142313   -1.015177
H       3.798206   -1.704255    1.544854
H       2.603138   -1.799318    2.846438
H       2.707290   -3.078578    1.627509
H       0.968252   -0.556978    3.422034
H       0.419001    1.003170    2.799592
H      -0.686851   -0.361778    2.828455
