18

O       0.233364    1.334955   -0.083901
C       0.045387   -0.029908   -0.010809
C      -0.454772   -0.696736    1.249571
O      -0.805355    0.174286    2.286647
C      -2.179455    0.181745    2.637745
C      -3.061056    0.556017    1.462583
N      -2.489458    1.556544    0.547402
C      -2.600450    0.138440    0.112860
C      -1.337619   -0.666495    0.005132
H      -0.545728    1.745775    0.331853
H       0.809346   -0.561009   -0.571193
H      -0.028626   -1.641336    1.586022
H      -2.499494   -0.798125    3.028326
H      -2.271034    0.916497    3.443901
H      -4.128114    0.592040    1.667155
H      -3.217842    2.115225    0.113691
H      -3.356005   -0.079153   -0.636141
H      -1.458272   -1.597872   -0.539377
