18

C       0.032333    1.571141    0.031636
C       0.014242    0.058335    0.026590
C       0.655375   -0.581961   -1.235007
C       0.625011   -2.091204   -1.122834
C       0.058937   -2.667337   -0.058544
C      -0.459054   -1.748408    1.037892
N       0.496911   -0.622956    1.280661
C      -1.310555   -0.691548    0.302235
O      -2.465910   -0.489313    0.090778
H       1.057007    1.950501   -0.052863
H      -0.543317    1.961528   -0.813856
H      -0.402138    1.955207    0.957392
H       0.099639   -0.259330   -2.126217
H       1.682181   -0.210265   -1.371725
H       1.058105   -2.677894   -1.927538
H      -0.041394   -3.742742    0.043589
H      -0.841955   -2.257055    1.923215
H       1.466089   -0.930918    1.210057
