17

C       0.093526    1.285759    0.499844
C       0.067184   -0.115352   -0.065587
C      -1.030334   -0.875680    0.050274
C      -1.336484   -2.253633   -0.445850
O      -0.308221   -2.909410   -1.158519
C       0.937015   -2.835370   -0.549086
O       1.704230   -1.739706   -1.022195
C       1.332362   -0.452254   -0.800886
O       2.064937    0.420303   -1.192205
H       0.924772    1.410571    1.201640
H       0.254475    2.014359   -0.299043
H      -0.840380    1.517749    1.016674
H      -1.872496   -0.442650    0.589954
H      -1.655633   -2.867140    0.415653
H      -2.195635   -2.213839   -1.127039
H       0.849992   -2.791449    0.545643
H       1.510159   -3.713652   -0.849832
