17

O       0.034964    1.374599    0.013655
C       0.016777   -0.032524   -0.030908
C       0.538006   -0.714841    1.278930
C      -0.803443   -1.348707    1.723913
C      -1.284750   -2.058287    0.426407
C      -1.424396   -0.582890    0.023035
O      -1.763773   -0.262117    1.415485
C      -0.911715   -1.926909    3.035896
C      -0.977822   -2.429048    4.125765
H      -0.550643    1.617949    0.743490
H       0.567968   -0.327807   -0.926752
H       1.317575   -1.462453    1.116166
H       0.898742    0.028219    1.992011
H      -0.577423   -2.698749   -0.105544
H      -2.249913   -2.544679    0.564328
H      -2.144200   -0.211612   -0.704678
H      -1.040788   -2.869086    5.090470
