20

C      -0.789678    1.085052   -0.093362
C       0.249819   -0.009894    0.087142
C       1.478437   -0.032603   -0.869800
C       2.399299   -0.321721    0.347408
C       1.233667    0.093696    1.290322
C       2.794425   -1.800228    0.454161
O       3.599149   -2.238146   -0.624775
C       3.456040   -2.065774    1.751439
N       3.998537   -2.246935    2.755736
H      -0.319308    2.075221   -0.099007
H      -1.330898    0.967581   -1.038738
H      -1.527225    1.071025    0.716684
H      -0.246834   -0.986483    0.088403
H       1.490640   -0.770555   -1.675292
H       1.676273    0.953679   -1.299597
H       3.308956    0.283584    0.420411
H       1.346603    1.123816    1.639386
H       1.046715   -0.542291    2.160124
H       1.893728   -2.423638    0.408973
H       4.411896   -1.718887   -0.622877
