14

O       0.033153    0.058410   -0.591088
C       0.047026    1.156713   -0.143991
O      -0.972146    1.828338    0.490551
C      -0.162660    3.040115    0.670382
C       0.213394    3.307721    2.117151
C       1.570380    2.613559    2.321173
O       2.173591    2.480829    3.356617
N       1.998936    2.182956    1.081274
C       1.046865    2.326933    0.013353
H      -0.616035    3.871352    0.132781
H       0.321626    4.375896    2.325635
H      -0.523952    2.904364    2.814475
H       2.830837    1.618321    1.003511
H       1.473933    2.719748   -0.911140
