19

C      -0.071713    1.530569    0.029658
C       0.041693    0.002668   -0.009593
C       0.721110   -0.582784    1.226442
C      -0.104791   -0.552065    2.534856
O      -1.308519   -1.289669    2.158984
C      -0.466503   -2.440291    2.149411
C       0.484088   -1.882666    3.208119
O       1.659174   -2.284285    2.508853
C       0.855608   -2.121171    1.299922
H       0.912058    2.000856    0.139009
H      -0.523783    1.914658   -0.889779
H      -0.694170    1.863689    0.866671
H      -0.953230   -0.439868   -0.116322
H       0.617839   -0.295969   -0.894821
H       1.715657   -0.148877    1.373177
H      -0.306121    0.379191    3.059524
H      -0.961284   -3.408281    2.108657
H       0.477419   -2.035439    4.285350
H       1.213266   -2.693756    0.446356
