18

C      -0.377444    1.419491   -0.100509
N       0.028659    0.024796   -0.024210
C       1.420673   -0.297207   -0.304075
C       0.872981   -0.445491    1.075916
C       1.362003    0.442920    2.192259
C       0.613537    0.413348    3.541886
O       1.810270   -0.101972    4.209431
C       2.519805   -0.124379    3.035007
O       3.636050   -0.490260    2.863311
H       0.411418    2.146806    0.150052
H      -0.702224    1.628031   -1.124478
H      -1.230039    1.589579    0.565149
H       1.602165   -1.170952   -0.923591
H       2.112305    0.528747   -0.470371
H       0.605829   -1.447579    1.410769
H       1.591954    1.451116    1.842545
H       0.319552    1.376643    3.962630
H      -0.206178   -0.305222    3.612468
