15

O      -0.276466    1.473751   -0.323487
C      -0.106852    0.102765   -0.164204
C      -1.308185   -0.750923    0.096561
C      -2.504502   -0.265419   -0.739938
N      -1.679074   -0.421141   -1.952853
C      -1.702908    0.364978   -3.063835
O      -2.633567    1.064738   -3.396835
C      -0.518390   -0.898206   -1.218065
H       0.379433    1.796859   -0.950671
H       0.776441   -0.201093    0.400328
H      -1.374623   -1.433934    0.931679
H      -3.353890   -0.953086   -0.729583
H      -2.842480    0.758373   -0.566912
H      -0.775085    0.249118   -3.664713
H       0.104127   -1.702451   -1.593085
