17

O       0.520380    1.206759   -0.205471
C       0.190718   -0.146353   -0.188398
C      -1.275225   -0.367063    0.138951
O      -1.990981    0.593085    0.345096
C      -1.794770   -1.781186    0.197063
C      -2.589351   -2.151440    1.498082
C      -3.691690   -2.718979    0.592535
O      -4.606667   -3.465020    0.770549
C      -3.083890   -2.058194   -0.652950
H      -0.305766    1.671264    0.004559
H       0.395760   -0.627449   -1.160993
H       0.790016   -0.701863    0.554358
H      -1.002319   -2.501635   -0.016360
H      -2.124757   -2.835224    2.211100
H      -2.934230   -1.252374    2.019452
H      -3.604493   -1.126020   -0.896051
H      -2.989593   -2.672255   -1.550636
