19

O      -0.050591    1.373376   -0.307163
C       0.043085   -0.037881   -0.172162
C      -1.364250   -0.558683    0.047533
C      -2.369858   -0.522107   -1.142441
C      -2.663540   -2.036930   -0.961488
C      -1.807376   -2.973054   -1.856167
C      -0.712987   -2.946569   -0.770193
O       0.381787   -3.425322   -0.685771
C      -1.574855   -2.101426    0.180808
H       0.828857    1.717105   -0.489125
H       0.482260   -0.495109   -1.072568
H       0.681959   -0.323272    0.679091
H      -1.781257   -0.050930    0.921601
H      -3.227676    0.132208   -0.978113
H      -1.925784   -0.259590   -2.107412
H      -3.698481   -2.331693   -0.796816
H      -2.223412   -3.982393   -1.955040
H      -1.524246   -2.619310   -2.852075
H      -1.723876   -2.505158    1.183648
