21

C       0.379026    1.386994    0.086503
C       0.047861   -0.071841    0.042978
C      -0.091898   -0.843239   -1.038549
C      -0.389065   -2.292027   -0.724658
C      -0.229526   -2.347546    0.803524
C       1.201786   -2.484258    1.365781
O       1.172491   -1.161615    1.943093
C      -0.119298   -0.883928    1.315522
C      -1.104553   -0.331998    2.326386
H       1.281471    1.554325    0.686553
H       0.551936    1.790395   -0.914782
H      -0.423810    1.971473    0.552415
H       0.000937   -0.483191   -2.059114
H      -1.400199   -2.578571   -1.044041
H       0.297217   -2.978064   -1.238807
H      -0.966093   -2.975389    1.306644
H       1.355354   -3.253384    2.131440
H       1.982152   -2.583598    0.599006
H      -0.758628    0.631570    2.714505
H      -2.088698   -0.184034    1.868996
H      -1.207543   -1.017554    3.172134
