17

O       0.117135    1.300445    0.460861
C      -0.024678    0.039930   -0.184699
C      -1.423170   -0.449079    0.031198
N      -1.648278   -1.760855    0.237061
N      -2.983973   -1.792213    0.312235
C      -4.176665   -2.587712    0.631725
C      -4.967022   -1.223069    0.480591
C      -3.599493   -0.605919    0.206100
C      -2.612251    0.339364    0.011488
H       0.967726    1.667050    0.202092
H       0.175306    0.136795   -1.264716
H       0.674223   -0.710684    0.210916
H      -4.408043   -3.364201   -0.102034
H      -4.170017   -3.012299    1.638976
H      -5.680344   -1.199779   -0.346277
H      -5.462861   -0.889285    1.394716
H      -2.677348    1.406207   -0.112118
