18

C      -0.148120    1.552122    0.001283
C       0.004091    0.038075   -0.025797
C      -1.207643   -0.810079    0.446561
O      -0.379298   -1.563083    1.353842
C       0.759510   -0.703155    1.119705
C       1.950381   -1.451807    0.505916
C       1.708216   -1.306340   -0.980086
C       0.677341   -0.508840   -1.260285
H       0.818903    2.048139   -0.132720
H      -0.808411    1.894696   -0.804009
H      -0.577079    1.890906    0.950129
H      -1.977836   -0.234378    0.979630
H      -1.688391   -1.450184   -0.302427
H       1.009934   -0.123247    2.015904
H       2.916694   -1.025280    0.807204
H       1.944191   -2.496355    0.839439
H       2.324088   -1.805525   -1.720793
H       0.329789   -0.263756   -2.259114
