20

C      -0.394779    1.396801    0.124102
N      -0.100765   -0.022981    0.150100
C       0.363132   -0.661451    1.262333
O       0.601781   -0.085098    2.310876
C       0.545160   -2.171452    1.107553
C       1.491135   -2.733915    2.157717
C       0.995804   -2.774205    3.618575
O       1.194802   -4.205971    3.691836
C       1.567947   -4.270227    2.303637
H      -0.138780    1.797825    1.105311
H       0.198203    1.912354   -0.639296
H      -1.456742    1.583109   -0.072274
H      -0.274883   -0.567797   -0.677982
H      -0.442966   -2.642418    1.206480
H       0.900119   -2.409647    0.096474
H       2.472566   -2.264105    2.064945
H       1.601309   -2.233098    4.351759
H      -0.056541   -2.497412    3.755887
H       0.833114   -4.828344    1.704326
H       2.555320   -4.726390    2.160346
