17

C       0.677740    0.993825    0.392912
O       0.260570   -0.082177   -0.436775
C      -1.073697   -0.511544   -0.256584
C      -1.664191   -0.781377   -1.642909
O      -2.717999   -1.331180   -1.816142
C      -1.121113   -1.805060    0.595028
O      -0.182530   -2.730742    0.079339
C      -0.914633   -1.535275    2.023767
C      -0.742700   -1.322250    3.194723
H       1.707764    1.224317    0.111869
H       0.055890    1.884142    0.224950
H       0.641278    0.726621    1.454336
H      -1.688638    0.268827    0.215495
H      -1.033663   -0.403020   -2.475770
H      -2.111661   -2.249165    0.446414
H       0.646086   -2.240837   -0.011502
H      -0.599107   -1.149387    4.233036
