18

O      -0.548308    1.197116    0.148021
C      -0.009972   -0.105285    0.049472
C       0.830768   -0.296758   -1.232694
C       0.064222   -0.077105   -2.454692
N      -0.544220    0.092265   -3.422187
C       0.812361   -0.508312    1.273768
O       1.292792   -1.827129    1.193937
C       1.748687    0.464561    1.926006
C       0.470085    0.044427    2.627505
H       0.151840    1.837000   -0.021012
H      -0.882470   -0.768816   -0.008470
H       1.684861    0.392681   -1.214934
H       1.246364   -1.308572   -1.232868
H       0.568181   -2.422913    1.416749
H       2.684104    0.058223    2.291376
H       1.809398    1.479253    1.547336
H      -0.333737    0.767928    2.687723
H       0.565429   -0.630865    3.470377
