12

O       0.051843    0.068814    0.140390
C       0.174678    1.247469    0.282443
O       0.973297    1.994366   -0.510690
C       0.996049    3.384005   -0.243147
C       1.850857    3.893760    0.884572
C       2.278708    4.079838   -0.555425
H      -0.337786    1.845838    1.059483
H       0.057211    3.881876   -0.467427
H       1.499538    4.751728    1.446458
H       2.387890    3.154703    1.468176
H       3.087785    3.456032   -0.916752
H       2.230195    5.068168   -0.996954
