23

C      -0.096443    1.560102   -0.042055
C       1.272465    0.926226   -0.031609
C       0.041593    0.054610    0.019270
C      -0.316543   -0.648974    1.320634
C       0.628006   -1.791412    1.756365
C       1.186410   -2.694910    0.635551
C       0.291595   -2.907134   -0.592145
O       0.397077   -1.854493   -1.536148
C      -0.353588   -0.691946   -1.245947
H      -0.431066    2.076119    0.851732
H      -0.445593    2.008454   -0.966712
H       1.853277    0.938645   -0.947872
H       1.868522    1.019211    0.870430
H      -0.360325    0.083781    2.134685
H      -1.338460   -1.038484    1.220766
H       1.478625   -1.366135    2.301430
H       0.087860   -2.405568    2.486969
H       2.126084   -2.281031    0.253749
H       1.433065   -3.673997    1.063895
H       0.621290   -3.804111   -1.127095
H      -0.761421   -3.066328   -0.304472
H      -1.427128   -0.945589   -1.184852
H      -0.216398   -0.043065   -2.117209
