19

C      -0.068037    1.562248    0.030550
C       1.474968    1.257773    0.034837
C       1.226812    0.041025    0.958367
C       2.166178   -1.099997    0.587328
C       1.776335   -1.209266   -0.929916
C       0.467162   -2.012923   -0.984453
C      -0.554167   -1.285653   -0.492423
C       0.049736    0.030324   -0.131005
C       1.233056    0.224827   -1.108910
H      -0.489156    1.944223    0.965238
H      -0.455093    2.117395   -0.829157
H       2.281923    1.988387    0.120415
H       0.961759    0.204668    2.003665
H       3.220735   -0.831900    0.713182
H       1.975220   -2.022985    1.141923
H       2.571157   -1.564705   -1.586390
H       0.426220   -3.063032   -1.251732
H      -1.562138   -1.630543   -0.299531
H       0.997407    0.568892   -2.118066
