14

C      -0.017880    1.416038    0.086164
N       0.064808   -0.035674    0.032689
C       0.545837   -0.596863   -0.978423
O       1.045233   -0.038182   -2.131513
N       1.468902   -1.065692   -3.024155
C       1.236881   -2.167692   -2.412001
N       0.681135   -1.988764   -1.162750
C       0.314523   -2.988770   -0.260400
O       0.459177   -4.159220   -0.496555
H       0.785477    1.808943    0.720581
H       0.050966    1.899804   -0.894566
H      -0.966042    1.697570    0.553043
H       1.447266   -3.145276   -2.816215
H      -0.108029   -2.558433    0.659050
