20

C      -0.467246    1.610534    0.312314
C      -0.270409    0.103775    0.137319
C       0.583399   -0.250112   -1.087066
O       1.878534    0.348003   -0.871053
C       2.699927    0.407187   -1.938113
N       3.850712    0.911546   -1.817552
C       0.689619   -1.693595   -1.297136
C       0.775986   -2.883189   -1.462851
C       0.885929   -4.320786   -1.660370
H       0.493445    2.117316    0.428910
H      -0.978270    2.047441   -0.553269
H      -1.075288    1.818775    1.197279
H       0.214172   -0.327664    1.019379
H      -1.234306   -0.403142    0.022897
H       0.134090    0.214833   -1.978092
H       2.262922   -0.009567   -2.854998
H       4.332970    0.887695   -2.713753
H       0.621591   -4.604889   -2.684671
H       1.908914   -4.664155   -1.472349
H       0.222745   -4.866040   -0.980197
