20

O      -0.018648    1.455011   -0.011949
C      -0.015603    0.052094    0.036740
C       0.228615   -0.688548    1.388032
C      -0.750273   -1.762632    0.815914
C      -1.406609   -0.608107    0.007396
C       0.083445   -2.687164   -0.054210
C      -0.125439   -2.829970   -1.517652
N       0.993483   -2.029096   -1.008986
C       0.885351   -0.557472   -1.054595
H       0.894877    1.762453   -0.026667
H       1.245937   -1.003679    1.637234
H      -0.211241   -0.126071    2.214685
H      -1.378652   -2.317454    1.514529
H      -2.102778   -0.046270    0.635253
H      -1.877390   -0.807751   -0.956994
H       0.539424   -3.515247    0.488165
H       0.167149   -3.748299   -2.021261
H      -0.969419   -2.322238   -1.975865
H       0.536416   -0.229926   -2.041327
H       1.901586   -0.156660   -0.922348
