21

C       0.065072    1.597653    0.018491
C       0.106857    0.097810    0.039181
C       0.555062   -0.785593   -1.133635
C       1.175132   -1.795499   -0.113843
C       0.713677   -0.890712    1.037343
C       1.464099   -0.681453    2.319833
C      -0.806271   -0.753336    0.924397
C      -1.524591   -0.118699    1.989600
C      -2.141818    0.403661    2.881961
H       1.031902    2.013014   -0.287812
H      -0.689741    1.957494   -0.691464
H      -0.187967    2.003951    1.001210
H      -0.240099   -1.159742   -1.787185
H       1.315539   -0.304156   -1.753926
H       0.776569   -2.815565   -0.115200
H       2.263979   -1.848857   -0.194056
H       2.498151   -0.375646    2.124065
H       0.990466    0.084351    2.939558
H       1.498189   -1.606887    2.907774
H      -1.353040   -1.568540    0.449480
H      -2.691107    0.859860    3.667493
