18

O       0.058521   -0.137047    0.769654
C      -0.078204    0.969098    0.293621
N       0.922953    1.721933   -0.243006
C       2.291190    1.272762   -0.331134
C       3.093641    1.702032   -1.601744
C       4.123089    2.408177   -0.698067
O       3.763173    3.786212   -0.448412
C       3.174830    3.447790    0.832020
C       3.369543    1.949771    0.583750
H      -1.055070    1.489764    0.241334
H       0.686497    2.628366   -0.615684
H       2.268137    0.193600   -0.180825
H       3.484744    0.853885   -2.169613
H       2.579355    2.381658   -2.286356
H       5.190134    2.280945   -0.894367
H       3.772047    3.845121    1.662268
H       2.144277    3.809809    0.933326
H       3.788934    1.340423    1.382304
