12

N      -0.133720    1.364705   -0.074718
C       0.121172    0.013762    0.131676
O       1.197283   -0.423241    0.449620
N      -1.048940   -0.753365    0.008784
C      -1.093818   -2.150251   -0.130654
N      -2.373720   -2.642216    0.098331
O      -0.166028   -2.834770   -0.478094
H       0.714045    1.911888   -0.103293
H      -0.804756    1.613149   -0.786717
H      -1.928267   -0.261234    0.021731
H      -2.920249   -2.209225    0.828250
H      -2.396261   -3.651252    0.114763
