19

C       0.061682    1.594870    0.026612
C       0.106693    0.070725   -0.022454
C       0.829172   -0.572472   -1.224965
C       1.176134   -2.005876   -0.756004
C       1.487227   -1.835782    0.719086
C       1.848373   -2.890004    1.675156
O       2.839336   -1.998933    1.177552
C       0.804552   -0.557490    1.187511
O       0.836915   -0.123449    2.310152
H       1.069339    2.015671   -0.053783
H      -0.541570    1.999708   -0.791118
H      -0.363993    1.930459    0.975853
H      -0.923540   -0.321279    0.007694
H       0.227584   -0.559682   -2.136889
H       1.751627   -0.016751   -1.432614
H       0.308375   -2.664606   -0.882227
H       2.016273   -2.449760   -1.294201
H       1.588561   -2.755717    2.723825
H       1.917664   -3.918239    1.320941
