18

C      -0.384333    1.233089   -0.265072
O       0.221995   -0.017742    0.052392
C       0.858953   -0.602320   -1.036533
C       1.349815   -2.011506   -0.888830
C       1.276007   -2.764963    0.418966
C       0.069125   -1.743818   -1.692797
O      -1.158716   -2.058291   -1.116531
C       0.098618   -1.888003   -3.124828
N       0.168737   -1.987453   -4.275534
H       0.369984    1.958988   -0.595245
H      -1.142207    1.127220   -1.051941
H      -0.855895    1.595131    0.650136
H       1.410569    0.087466   -1.672309
H       2.220847   -2.231174   -1.499858
H       0.347604   -2.558627    0.951935
H       1.330729   -3.842318    0.238941
H       2.110314   -2.483146    1.068414
H      -1.306245   -1.398243   -0.423743
