16

O       0.505086    0.566947   -1.177161
C       0.286000    1.380566   -0.302414
N       1.215342    1.829669    0.579500
C       2.591498    1.362140    0.550376
C       3.401791    2.014107   -0.585517
N       4.777961    1.546609   -0.614613
C       5.707297    1.995747    0.267286
O       5.488181    2.809309    1.142078
H      -0.709212    1.836811   -0.132261
H       0.948049    2.534395    1.247147
H       3.062449    1.595195    1.506964
H       2.586354    0.276566    0.414892
H       2.930880    1.780973   -1.542104
H       3.406857    3.099690   -0.450105
H       5.045337    0.842069   -1.282423
H       6.702529    1.539562    0.097092
