15

C       0.032135    1.580900    0.106578
C       0.031286    0.057258   -0.094669
O       0.866510   -0.608477    0.843591
C      -1.333293   -0.477055   -0.080661
C      -2.464211   -0.911501   -0.029138
C      -3.726638   -1.397536    0.027524
C      -4.859424   -1.833580    0.084292
C      -6.206182   -2.335568    0.117104
O      -6.690100   -2.933641    1.051643
H       1.063793    1.940560    0.089134
H      -0.536535    2.080561   -0.682551
H      -0.417783    1.841415    1.069761
H       0.479288   -0.169342   -1.070110
H       0.469474   -0.508384    1.716550
H      -6.786829   -2.128042   -0.804295
