21

C       0.078917    1.487837   -0.113365
C       0.044943   -0.032629    0.081634
C       0.721991   -0.431950    1.401506
O       2.077058   -0.015073    1.485295
C      -1.379097   -0.585495    0.017911
C      -2.164467   -0.502534   -1.348339
C      -2.290876   -2.029915   -1.315323
O      -0.961655   -2.565663   -1.272435
C      -1.554251   -2.118098   -0.046165
H       1.101496    1.859828   -0.013260
H      -0.301152    1.777616   -1.097655
H      -0.533949    1.992193    0.643913
H       0.609108   -0.507142   -0.734393
H       0.214290    0.054867    2.243437
H       0.636673   -1.519088    1.553719
H       2.565852   -0.477720    0.796806
H      -1.988726   -0.163098    0.825493
H      -3.119475    0.019222   -1.254883
H      -1.615082   -0.107845   -2.206817
H      -3.064254   -2.666000   -1.729739
H      -1.619022   -2.839574    0.760558
