11

F       0.046443    0.017297    0.002820
C      -0.023330    1.340614    0.010904
C      -1.218374    1.984610    0.030545
F      -2.364258    1.335048    0.042534
C      -1.270560    3.441783    0.039138
O      -2.272010    4.127205    0.056370
N       0.014932    4.001578    0.024746
N       1.204329    3.390616    0.005362
C       1.188675    2.089836   -0.001442
H       0.050648    5.013043    0.029720
H       2.142655    1.576954   -0.017105
