15

C       0.051799    1.430346   -0.204260
N       0.032804   -0.018573   -0.135278
C      -1.060997   -0.601902    0.140481
N      -2.292444   -0.000891    0.394799
N      -3.450674   -0.624868    0.687180
C      -3.442743   -1.910358    0.742755
C      -2.245626   -2.744045    0.506607
O      -2.230301   -3.955351    0.557130
N      -1.121837   -1.989026    0.216255
H       1.063340    1.761383   -0.449738
H      -0.617584    1.830529   -0.983031
H      -0.222210    1.907904    0.750502
H      -2.358070    1.001878    0.365073
H      -4.372733   -2.413046    0.977572
H      -0.253534   -2.476786    0.039760
