17

O       0.100397    1.318115    0.797847
C       0.031124    0.051439    0.214038
C      -0.513822   -1.044315    1.069616
C      -1.323316   -0.555530   -0.122731
C      -2.574061    0.210054    0.042435
N      -3.555187    0.049347   -0.849914
N      -4.534931    0.874509   -0.430999
C      -4.212946    1.554181    0.694361
C      -2.940629    1.154019    1.038128
H      -0.235694    1.958313    0.160851
H       0.854080   -0.183912   -0.460715
H      -0.065238   -2.029934    1.017900
H      -0.866777   -0.749987    2.051730
H      -1.345119   -1.205633   -0.990801
H      -5.392304    0.915057   -0.954396
H      -4.895889    2.252588    1.151938
H      -2.351749    1.490106    1.873960
