25

C      -0.013497    1.568398    0.090460
C       0.164619    0.048994    0.042316
C       0.518260   -0.468366   -1.359217
C       0.648444   -1.978344   -1.401285
C       1.457897   -2.714519   -2.463019
C       2.190676   -1.979248   -3.565572
C       1.933936   -2.656536   -1.022896
O       3.000281   -1.824294   -0.681277
C       4.252768   -2.474911   -0.758825
H       0.903293    2.083971   -0.217006
H      -0.815814    1.895942   -0.580707
H      -0.264254    1.910831    1.099515
H       0.956160   -0.256014    0.736864
H      -0.755941   -0.439458    0.389364
H      -0.255371   -0.151725   -2.072476
H       1.451691    0.000751   -1.682377
H      -0.250032   -2.495942   -1.070656
H       1.040522   -3.670356   -2.771311
H       2.775268   -1.144999   -3.172026
H       2.881321   -2.651551   -4.086359
H       1.494143   -1.581265   -4.311751
H       1.889588   -3.571227   -0.428408
H       4.471167   -2.823987   -1.777634
H       5.012768   -1.749939   -0.457357
H       4.297906   -3.340147   -0.079812
