15

O      -0.067975    1.351443    0.005404
C      -0.021834   -0.028973    0.087287
C      -0.598076   -0.762025    1.268862
C      -1.306981   -0.824081   -0.082848
O      -2.422964    0.046533   -0.240417
C      -3.604245   -0.355535    0.302868
O      -4.583918    0.318243    0.240077
C      -1.352577   -2.030360   -0.852169
C      -1.385509   -3.048568   -1.491266
H      -0.987875    1.610721   -0.136658
H       0.864632   -0.442940   -0.381753
H      -0.114540   -1.666097    1.620200
H      -1.082837   -0.158581    2.028872
H      -3.535755   -1.346180    0.783452
H      -1.415542   -3.943237   -2.063357
