15

O       0.121965    1.400863   -0.224700
C      -0.005743    0.031595    0.012974
C       0.237725   -0.573053    1.446417
C      -1.109896   -1.290896    1.331452
C      -2.232639   -0.283510    1.185214
C      -2.182266    1.018120    1.798533
N      -2.103684    2.068676    2.279719
C      -1.388292   -0.646650   -0.022626
H      -0.392083    1.886611    0.431664
H       0.652476   -0.457975   -0.709315
H       1.096068   -1.245829    1.480952
H       0.320594    0.150133    2.262384
H      -1.331321   -2.297929    1.660664
H      -3.228529   -0.714965    1.167179
H      -1.873198   -1.057421   -0.900177
