11

F       0.023253    0.018514    0.003244
C      -0.020521    1.344246    0.010823
C      -1.224708    2.026710    0.030224
C      -1.183465    3.419699    0.037042
N      -0.054670    4.131042    0.025997
C       1.098434    3.459024    0.007326
C       1.165230    2.073558   -0.000875
F       2.335292    1.441574   -0.019568
H      -2.159324    1.479125    0.039589
H      -2.110260    3.986223    0.052192
H       2.022467    4.031086   -0.001775
