17

O      -0.251850    1.550551    0.508870
C      -0.060784    0.194075    0.119591
C       0.729731   -0.583027    1.175196
C      -0.306968   -0.943114    2.248608
O      -0.068223   -1.329990    3.360215
C      -1.704746   -0.735428    1.648647
C      -1.463883   -0.474738    0.150597
C      -2.530938    0.381340   -0.501954
O      -3.061500    0.114548   -1.549222
H       0.609098    1.977105    0.560586
H       0.382154    0.133464   -0.881943
H       1.123579   -1.519077    0.757819
H       1.573758   -0.032522    1.599377
H      -2.353269   -1.587509    1.862371
H      -2.146481    0.143135    2.135327
H      -1.408906   -1.413567   -0.408267
H      -2.800364    1.294320    0.069777
