16

O      -0.080169    0.000354    0.182905
C       0.004684    1.169649   -0.104521
C       1.263774    1.934464   -0.074072
C       1.245469    3.428570    0.254192
C       1.633733    2.991074   -1.122731
C       3.098754    2.755481   -1.447055
C       3.563446    1.618169   -0.511082
O       4.678141    1.162088   -0.425768
N       2.467541    1.234145    0.223672
H      -0.885118    1.772054   -0.394617
H       0.277271    3.904935    0.369106
H       2.011785    3.763911    0.944824
H       0.940952    3.190547   -1.931822
H       3.240085    2.431886   -2.482200
H       3.729757    3.634862   -1.291644
H       2.484019    0.442098    0.846245
