17

C      -0.111556    1.526386    0.018853
C       0.130849    0.045434   -0.027843
O      -0.694689   -0.769953    0.843471
C       0.707364   -0.778477    1.077280
C       1.524438   -1.873734    0.407807
O       1.142227   -3.288314    0.346554
C       1.162486   -3.272920   -1.115717
C       1.143578   -1.764843   -1.037061
C       0.356762   -0.724879   -1.308103
H       0.741076    2.070486   -0.400123
H      -0.998449    1.789262   -0.568326
H      -0.275409    1.859553    1.046229
H       1.026361   -0.340815    2.019472
H       2.584330   -1.781642    0.680035
H       2.081691   -3.732363   -1.501183
H       0.286283   -3.762472   -1.551726
H      -0.243817   -0.564199   -2.195759
