21

O      -0.402964    1.606477    0.533758
C      -0.182162    0.263545    0.127095
C       0.619907   -0.554234    1.182861
C      -0.400353   -1.509879    1.863225
C      -1.782911   -1.032007    1.385117
O      -2.250123    0.092733    2.152992
C      -1.491333   -0.512447   -0.006142
C      -2.566787   -0.108531   -0.966577
C      -1.775706   -1.370334   -1.213781
H      -1.042711    1.559490    1.257621
H       0.352550    0.331704   -0.825043
H       1.430075   -1.120261    0.715036
H       1.077752    0.143937    1.887000
H      -0.248601   -2.541600    1.529573
H      -0.325576   -1.517552    2.956283
H      -2.539734   -1.827909    1.399396
H      -2.224004   -0.149492    3.084531
H      -3.598643   -0.205564   -0.646706
H      -2.372303    0.754461   -1.593762
H      -1.045999   -1.371316   -2.016928
H      -2.271327   -2.324366   -1.063054
