23

C      -0.280183    0.953809   -1.732114
C      -0.005358   -0.233008   -0.831700
C       1.390319   -0.632178   -0.393211
C       2.637746    0.118672   -0.812540
C       0.402023   -0.096541    0.624933
C       0.570584    1.241310    1.317469
C      -0.764048    1.783673    1.869474
C      -0.566696    3.044601    2.676411
O      -1.104642    4.100029    2.460336
H       0.362164    1.811260   -1.518563
H      -0.125627    0.686845   -2.783544
H      -1.317691    1.290334   -1.628423
H      -0.670110   -1.069709   -1.034169
H       1.554049   -1.705780   -0.332089
H       2.478564    1.195328   -0.904899
H       3.446214   -0.031242   -0.088107
H       2.996614   -0.240390   -1.783522
H      -0.021954   -0.848830    1.288045
H       1.284781    1.133317    2.145425
H       1.002289    1.986679    0.643120
H      -1.478121    1.985343    1.066610
H      -1.205282    1.028655    2.536919
H       0.153048    2.934852    3.523365
