17

C      -0.009608    1.497106    0.006398
C       0.010583    0.041929    0.049101
C       0.042637   -1.161046    0.087320
C       0.040125   -2.617668    0.125594
C      -1.373726   -3.204650   -0.131356
C      -1.401191   -4.657668   -0.097985
C      -1.411607   -5.865667   -0.067847
C      -1.394312   -7.304425   -0.026211
O      -2.363178   -8.009286   -0.194440
H       0.665969    1.882032   -0.765308
H      -1.014147    1.873724   -0.215507
H       0.301060    1.927804    0.964567
H       0.731491   -3.020817   -0.623736
H       0.399612   -2.975016    1.097747
H      -2.072395   -2.809446    0.615583
H      -1.740967   -2.855184   -1.103595
H      -0.394094   -7.738605    0.178386
