16

O      -0.872430    1.175477   -0.016108
C       0.272197    0.868934   -0.251056
C       1.437773    1.760468    0.058947
N       2.583019    1.338612   -0.311990
C       3.766636    2.155119   -0.148587
C       3.921749    2.866080    1.217411
N       3.062847    4.009408    1.453363
C       1.819189    3.956762    1.220846
N       1.050368    2.934323    0.675645
H       0.568394   -0.082480   -0.727926
H       4.638763    1.513060   -0.312411
H       3.786220    2.919671   -0.937255
H       3.769875    2.121996    2.011079
H       4.959368    3.206252    1.303999
H       1.204169    4.821377    1.475131
H       0.041886    3.027452    0.733813
