19

C       0.049635    1.490725    0.173782
C       0.134224   -0.048736    0.095461
C       0.867093   -0.596533    1.237294
C       1.449580   -1.045474    2.188483
C      -1.270192   -0.664590    0.032892
C      -2.135978   -0.693351   -1.262257
C      -1.245986   -1.808763   -1.862433
C      -1.546820   -2.136350   -0.380116
O      -2.958155   -1.747033   -0.624501
H       1.048155    1.932339    0.220136
H      -0.465568    1.888305   -0.706022
H      -0.501250    1.801715    1.066164
H       0.690515   -0.306551   -0.813647
H       1.972477   -1.443215    3.022693
H      -1.859771   -0.377464    0.907410
H      -2.665344    0.117890   -1.763415
H      -1.753811   -2.453412   -2.580297
H      -0.221835   -1.577259   -2.161156
H      -1.367522   -3.053532    0.180402
