23

C       0.002050    1.467194   -0.026017
C       0.028432   -0.037117   -0.059102
C       0.581067   -0.961195   -1.164191
C       0.059178   -1.940256   -0.091991
C       0.081418   -3.444881   -0.110910
C       0.522226   -1.000901    1.078645
C      -0.859959   -1.034917    1.754839
C      -1.178632   -1.013951    0.243478
C      -2.524636   -1.024044   -0.430765
H       1.014516    1.880833   -0.096233
H      -0.578553    1.870336   -0.863846
H      -0.446563    1.840733    0.901365
H       0.059554   -0.952940   -2.128893
H       1.665935   -0.940938   -1.322911
H       1.106617   -3.822901   -0.195664
H      -0.353602   -3.864525    0.803133
H      -0.487028   -3.837412   -0.962011
H       1.515088   -0.992722    1.533917
H      -1.123256   -1.946052    2.303210
H      -1.152228   -0.152254    2.334223
H      -3.122386   -0.154354   -0.134396
H      -2.426214   -1.004019   -1.522275
H      -3.094152   -1.921892   -0.164274
