21

C      -0.040787    1.494379    0.073422
C      -0.004600    0.000570    0.001808
C       0.056728   -0.764457   -1.096941
C       0.054493   -2.219099   -0.774130
C      -0.747821   -3.212811   -1.590645
C       0.755993   -3.242190   -1.644139
C       0.084094   -2.287754    0.736910
C       1.264389   -1.673177    1.447074
C       0.004642   -0.854025    1.233183
H       0.817996    1.888232    0.632044
H      -0.036709    1.945750   -0.922496
H      -0.938856    1.843712    0.599351
H       0.128720   -0.393981   -2.114488
H      -1.255983   -4.006068   -1.050983
H      -1.289437   -2.843612   -2.455244
H       1.243664   -2.890921   -2.547635
H       1.274114   -4.054884   -1.145882
H      -0.456185   -3.085552    1.234370
H       1.467078   -2.024948    2.453650
H       2.144559   -1.411311    0.868616
H      -0.584985   -0.564604    2.097425
