18

O       0.049297    0.343649   -1.031198
C       0.007263    1.267496   -0.272795
C      -1.139047    2.047688    0.391989
C      -0.089205    3.110628    0.829453
C      -0.135628    4.586929    0.353790
C      -0.130189    4.962106    1.831635
C      -1.229004    4.295327    2.551754
N      -0.007099    3.511472    2.276433
C       1.064288    2.191613    0.346283
H      -1.952344    2.362782   -0.267179
H      -1.562774    1.504025    1.244114
H       0.772974    4.881797   -0.175260
H      -1.004459    4.911458   -0.227401
H       0.473272    5.742959    2.282117
H      -1.352696    4.517970    3.606955
H      -2.150130    4.042685    2.029968
H       1.583915    1.723503    1.189438
H       1.804846    2.610148   -0.340681
