21

C      -0.237873    1.566197    0.023925
C       0.036355    0.074207   -0.116472
C       0.737535   -0.512588   -1.348396
C       2.252261   -0.410852   -1.251249
C       2.874483    0.561141   -0.262681
O       2.238766    0.288380    0.988323
C       1.151477   -0.614729    0.758332
C       0.763679   -1.256284    2.067367
C       1.539120   -1.472708   -0.477218
H      -0.915173    1.909441   -0.766304
H      -0.715427    1.785912    0.985255
H       0.675673    2.161114   -0.032073
H      -0.897287   -0.482661    0.032305
H       0.266305   -0.719131   -2.303275
H       2.809034   -0.683997   -2.140466
H       3.953375    0.383511   -0.158823
H       2.731844    1.613036   -0.543108
H       0.436261   -0.496387    2.783840
H      -0.052904   -1.969073    1.922319
H       1.618126   -1.784868    2.501065
H       1.695190   -2.541414   -0.536937
