20

C       0.055951    1.535955   -0.084883
C      -0.000186    0.022670    0.131093
O       0.582410   -0.349834    1.374416
C      -1.423342   -0.540119    0.005135
C      -1.478692   -2.060852    0.058329
O      -2.155523    0.013130    1.130704
C      -3.486553    0.212919    0.950092
N      -4.030801    0.757653    2.079878
O      -4.091756   -0.023121   -0.068706
H       1.081632    1.891110    0.042291
H      -0.284426    1.804479   -1.090534
H      -0.582765    2.053654    0.637819
H       0.611975   -0.472832   -0.631849
H      -0.008598   -0.017528    2.060133
H      -1.894774   -0.175878   -0.911282
H      -0.999253   -2.426239    0.969583
H      -2.515091   -2.403910    0.022196
H      -0.949552   -2.483117   -0.802012
H      -3.516953    0.701281    2.942553
H      -5.035077    0.753711    2.130474
