20

C      -0.025103    1.540279   -0.188012
C      -0.045466    0.035090    0.022222
O       0.034543   -0.512692   -1.278634
C      -0.459027   -1.837434   -1.378318
C       0.009793   -2.654650   -0.181011
N      -0.077979   -1.885687    1.068810
C       0.826305   -0.658648    1.123722
C      -0.144013   -0.127556    2.203005
C      -1.014383   -0.672253    1.049403
H       0.020271    2.108721    0.741014
H       0.846364    1.802258   -0.795809
H      -0.916149    1.848212   -0.743515
H      -1.560106   -1.820520   -1.410272
H      -0.104283   -2.242388   -2.330748
H      -0.594536   -3.564115   -0.080655
H       1.053944   -2.967727   -0.301506
H       1.912802   -0.764030    1.170136
H      -0.178793   -0.738962    3.104089
H      -0.163792    0.939556    2.412532
H      -2.100832   -0.778914    1.022936
