20

C      -0.106238    1.466898   -0.256080
C       0.028651   -0.008615    0.121211
O       0.676633   -0.182814    1.378244
C      -1.323342   -0.695895    0.113042
N      -1.811005   -1.243314   -1.145305
C      -1.481181   -2.185941   -0.058703
C      -0.315374   -3.131122   -0.243281
C      -2.659117   -2.736777    0.678647
O      -3.770062   -2.261862    0.618037
H       0.873317    1.952013   -0.241695
H      -0.539261    1.571408   -1.255321
H      -0.760797    1.991421    0.451771
H       0.679564   -0.500923   -0.606166
H       0.191563    0.329753    2.034518
H      -2.065296   -0.231861    0.765595
H      -2.827722   -1.156040   -1.177260
H       0.472042   -2.671820   -0.840868
H       0.110756   -3.415313    0.724165
H      -0.633575   -4.042399   -0.761130
H      -2.451184   -3.633297    1.301461
