14

O      -0.112549    1.389260   -0.018672
C       0.040526    0.031098   -0.002227
C      -1.002208   -1.017699    0.170789
C      -0.287038   -1.890412   -0.915234
C       0.748401   -0.857169   -1.096707
N       1.098257   -2.142465   -0.436681
C       1.115652   -1.908172    1.002380
O       1.846285   -2.461181    1.769350
C       0.081481   -0.858771    1.238042
H       0.704263    1.798962    0.291248
H      -2.059348   -0.940570    0.375549
H      -0.737423   -2.596129   -1.599914
H       1.315198   -0.530751   -1.959143
H      -0.149121   -0.465294    2.217264
