15

C      -0.034660    1.522047    0.002781
C      -0.009831    0.019197    0.010100
C      -0.027306   -0.719481   -1.175760
N      -0.006376   -2.050590   -1.249490
C       0.034227   -2.731234   -0.101641
C       0.055114   -2.120175    1.145468
C       0.032764   -0.723679    1.202800
C       0.053143   -0.057048    2.469980
N       0.069522    0.491665    3.489050
H       0.857033    1.936706    0.484889
H      -0.079798    1.904757   -1.019333
H      -0.899266    1.908438    0.552638
H      -0.060596   -0.189132   -2.125421
H       0.050742   -3.814789   -0.180854
H       0.087835   -2.706840    2.055499
