17

C      -1.794647    1.512994    0.067270
C      -1.019584    2.423203   -0.058433
C      -0.050855    3.507582   -0.200510
C       1.388729    3.003845   -0.175084
C       2.486559    3.829081    0.406296
N       2.071372    2.583879    1.047113
C       1.403026    2.576948    2.346015
C       0.892321    3.866087    2.846177
N       0.528795    4.900193    3.214828
H      -2.493291    0.719966    0.171498
H      -0.212775    4.020068   -1.157657
H      -0.218511    4.259452    0.577120
H       1.622878    2.353799   -1.016232
H       3.481958    3.822747   -0.029058
H       2.198945    4.767615    0.877063
H       0.573609    1.863334    2.308585
H       2.118695    2.205041    3.088278
