16

C      -0.064234    1.428043   -0.013984
N      -0.018143   -0.015548    0.022091
N       0.016281   -0.734558   -1.150665
C       0.033814   -1.992977   -0.768976
C       0.024582   -2.134315    0.646977
C       0.064943   -3.349070    1.425967
O       0.095492   -4.476284    0.974763
C      -0.006467   -0.811764    1.111676
N      -0.099000   -0.292523    2.388987
H       0.903822    1.873284    0.246717
H      -0.321160    1.719242   -1.031683
H      -0.827977    1.798707    0.676516
H       0.055909   -2.788524   -1.498400
H       0.071780   -3.192186    2.533894
H       0.052911   -0.975221    3.117417
H       0.441286    0.545691    2.555461
