23

C       0.007917    1.569856   -0.027488
C      -0.026724    0.068560    0.262341
O       0.342586   -0.209490    1.614322
C      -1.381514   -0.547219   -0.064335
C      -1.817385   -0.674815   -1.536581
O      -2.136886   -2.066323   -1.375930
C      -1.575681   -2.096492   -0.024425
C      -0.309487   -2.945171    0.004017
C      -2.609849   -2.592888    0.974872
H       0.985386    1.983435    0.234709
H      -0.183458    1.776117   -1.085819
H      -0.756609    2.096580    0.557649
H       0.750068   -0.422430   -0.334526
H      -0.280419    0.251227    2.187801
H      -2.146751   -0.047567    0.542740
H      -2.684370   -0.082499   -1.851083
H      -1.006509   -0.519722   -2.264118
H       0.382470   -2.651120   -0.789761
H       0.202720   -2.844972    0.964844
H      -0.567590   -3.997038   -0.154174
H      -2.865211   -3.638763    0.775651
H      -2.217235   -2.523551    1.995298
H      -3.526642   -1.999706    0.910716
