16

C      -0.023572    1.487603    0.071861
C      -0.013251    0.001464   -0.062698
C       0.028879   -0.744796   -1.193819
C       0.036747   -2.143144   -0.815819
C       0.098279   -2.187799    0.705956
N      -0.110052   -0.780425    1.083242
N      -0.012978   -3.222778   -1.503652
O      -0.069903   -2.925961   -2.886134
H       0.829820    1.835909    0.667727
H       0.026998    1.967198   -0.906853
H      -0.931980    1.825173    0.583425
H      -0.001475   -0.376597   -2.205538
H      -0.670163   -2.836794    1.135388
H       1.076740   -2.549084    1.048181
H       0.371832   -0.450327    1.907298
H      -0.113955   -3.805212   -3.274233
