15

O       0.488870    1.250955    0.103866
C       0.204320   -0.063227   -0.013444
C       0.610596   -1.059569   -0.875886
C      -0.080566   -2.207886   -0.414898
C      -0.062890   -3.598632   -0.995392
C       1.269080   -4.062776   -1.372977
C       2.363225   -4.437837   -1.698774
N      -0.844633   -1.948015    0.637880
N      -0.657638   -0.619484    0.864538
H       1.116054    1.493135   -0.584393
H       1.305020   -0.983530   -1.696074
H      -0.508094   -4.276181   -0.258621
H      -0.714531   -3.637783   -1.879706
H       3.330000   -4.777460   -1.976314
H      -1.118308   -0.166114    1.634719
