21

C      -0.171158    1.547483    0.242232
C      -0.040811    0.026251    0.127519
C      -1.394962   -0.668804   -0.049629
C      -1.307197   -2.186923   -0.194016
O      -0.496530   -2.447859   -1.319869
C      -0.928216   -2.938222    1.132909
C      -2.397384   -3.368399    1.247893
O      -3.056895   -3.835564    2.130632
C      -2.711940   -2.885527   -0.174280
H       0.807659    2.021790    0.362765
H      -0.638907    1.973430   -0.652371
H      -0.786958    1.832258    1.103007
H       0.600783   -0.233838   -0.719914
H       0.459750   -0.364939    1.022867
H      -2.050654   -0.435253    0.799513
H      -1.893785   -0.276746   -0.945364
H      -0.398199   -3.400239   -1.418118
H      -0.269536   -3.796959    0.955772
H      -0.518724   -2.358381    1.963588
H      -3.601225   -2.262746   -0.302135
H      -2.769847   -3.722201   -0.880806
