17

C      -0.016177    1.534024    0.104336
C       1.263694    0.750190   -0.075795
C      -0.054365    0.040465    0.015531
C      -0.465025   -0.997948    1.046974
O      -1.875677   -1.225038    0.890555
C      -0.977290   -1.899026   -0.002265
C      -0.610603   -0.877341   -1.077631
C      -1.193033   -0.624612   -2.390706
O       0.121583   -1.200702   -2.242229
H      -0.209191    1.993134    1.068228
H      -0.392467    2.100293   -0.741705
H       1.743910    0.758540   -1.048387
H       1.944659    0.676858    0.765786
H      -0.021026   -1.220900    2.009936
H      -1.017724   -2.979656   -0.066728
H      -1.954458   -1.293505   -2.788462
H      -1.209139    0.388871   -2.788636
