21

C      -0.568794    1.159958    0.075387
O      -0.219841   -0.205195    0.083762
C       0.805990   -0.535989    1.001243
C       0.285366   -0.720099    2.433773
O      -0.175930   -2.067871    2.533746
C       0.212649   -2.792488    1.375940
C       1.298763   -1.961818    0.676730
C       1.480577   -2.272994   -0.803058
O       2.539136   -2.056898    1.383146
H       0.295880    1.795360   -0.171541
H      -1.336066    1.291459   -0.691237
H      -0.977647    1.495877    1.039568
H       1.631564    0.185830    0.943006
H       1.089935   -0.548062    3.159324
H      -0.544007   -0.040713    2.659909
H       0.587482   -3.779227    1.678463
H      -0.647841   -2.939855    0.707691
H       0.568183   -2.065770   -1.364187
H       2.292612   -1.666529   -1.213636
H       1.744344   -3.328362   -0.941641
H       2.799380   -2.983638    1.401763
