16

O       0.018057    0.050782    0.049498
C      -0.036227    1.249614    0.062416
C      -1.226006    2.210133   -0.032007
C      -0.854946    3.251531    1.064152
C       0.288425    3.546113    0.057440
N      -0.717695    3.230771   -1.020163
C       1.110799    2.268563    0.124875
C       2.431471    2.017693    0.700790
O       2.246488    2.091866   -0.717527
H      -2.221586    1.793096   -0.167661
H      -1.583973    4.061267    1.099442
H      -0.596043    2.893689    2.062304
H       0.814991    4.498096    0.004364
H      -0.294705    2.818606   -1.854662
H       2.989206    2.842200    1.143081
H       2.658812    1.025046    1.085858
