18

O       0.366400    1.187797   -1.310577
C       0.204557    1.510117   -0.152238
N       1.141860    1.379740    0.823911
C       2.474004    0.859888    0.549014
C       3.434423    1.913428    0.004039
C       3.876308    3.056084    0.973518
C       5.335316    2.728705    0.610459
O       6.379476    3.277838    0.803659
C       4.921382    1.467171   -0.165019
H      -0.741539    1.939568    0.233106
H       0.928797    1.731968    1.742858
H       2.869734    0.427341    1.475193
H       2.365791    0.052271   -0.180849
H       3.026435    2.312273   -0.926768
H       3.548738    4.075156    0.753721
H       3.667838    2.847464    2.030315
H       5.170539    0.551938    0.386017
H       5.318436    1.375189   -1.178777
