17

C      -0.130232    1.634637    0.200445
C       0.008619    0.126325    0.060128
C      -1.309778   -0.584193   -0.310569
C      -1.909337   -0.089021   -1.542087
C      -2.396934    0.327349   -2.558341
O       1.095457   -0.243505   -0.838198
C       1.865243   -0.904401    0.184141
C       0.769400   -0.577305    1.202180
O       0.567263   -0.780629    2.359788
H       0.828661    2.087513    0.464734
H      -0.472874    2.063027   -0.745043
H      -0.858374    1.877586    0.980414
H      -1.115960   -1.659447   -0.400918
H      -2.006468   -0.459168    0.528108
H      -2.831951    0.685653   -3.458332
H       2.019931   -1.973156   -0.011529
H       2.836248   -0.428010    0.370197
