18

O       2.148163    0.860381   -0.285011
C       1.010848    1.240553   -0.394137
C       0.382167    2.311823    0.506230
O      -0.819027    2.438446    0.493316
C       1.352211    3.152704    1.321278
N       2.178288    3.871081    0.367006
C       3.631952    3.646016    0.272757
C       3.804811    5.146854   -0.069996
C       2.357996    5.333081    0.451720
H       0.285709    0.798746   -1.110463
H       0.770827    3.842151    1.941836
H       1.957886    2.511812    1.977990
H       4.084792    3.372530    1.239416
H       3.932274    2.904121   -0.472097
H       4.589759    5.685680    0.460520
H       3.897553    5.331168   -1.141282
H       1.662831    5.918260   -0.159446
H       2.325326    5.714484    1.484538
