19

C      -0.080787    1.506127   -0.019192
C      -0.018512   -0.007148    0.075424
O       0.025489   -0.579515    1.139683
C       0.000582   -0.769405   -1.256832
C       0.594448   -2.175989   -1.093444
O       0.387335   -2.956064   -2.258303
C      -0.979153   -3.233681   -2.483594
C      -1.854159   -2.019595   -2.339403
C      -1.407640   -0.884311   -1.809612
H       0.882605    1.881094   -0.385938
H      -0.839692    1.834650   -0.736667
H      -0.280725    1.934285    0.963682
H       0.608718   -0.183801   -1.962357
H       1.675838   -2.130684   -0.942015
H       0.146902   -2.651287   -0.210543
H      -1.046935   -3.633624   -3.502329
H      -1.333646   -4.031442   -1.804230
H      -2.876688   -2.105758   -2.697230
H      -2.054635   -0.013452   -1.746684
