19

C      -0.037730    1.563258    0.162690
C       1.512969    1.491565   -0.161914
C       1.181090    0.126954   -0.805478
C      -0.097655   -0.006586    0.014672
C      -0.336798   -0.936706   -1.197346
C       0.338556    0.085627   -2.143448
C       1.170152   -0.694808   -3.154763
O       1.698867   -1.750617   -2.329144
C       1.197132   -1.417222   -1.064333
H      -0.304782    1.939428    1.152385
H      -0.598702    2.125572   -0.585345
H       1.945599    2.268716   -0.798211
H       2.107413    1.402709    0.752209
H       0.002588   -0.506280    0.982984
H      -1.178154   -1.594432   -1.436939
H      -0.202333    0.963981   -2.491123
H       0.580723   -1.127108   -3.972561
H       1.992155   -0.106779   -3.583127
H       1.512650   -2.130792   -0.303826
