19

C       0.161211    1.623546   -0.099924
C      -0.033348    0.114722   -0.004774
O       0.609405   -0.453082   -1.147486
C       0.124994   -1.703367   -1.580651
C       0.497200   -2.896853   -0.689824
O       1.071633   -3.851751   -1.156683
C       0.042254   -2.881605    0.768759
C       0.557800   -1.735221    1.613196
C       0.514927   -0.443978    1.295270
H       1.228135    1.866084   -0.079898
H      -0.262633    2.005623   -1.031228
H      -0.324583    2.125916    0.742039
H      -1.112609   -0.113540   -0.067079
H      -0.976503   -1.684334   -1.678653
H       0.556949   -1.889241   -2.566464
H      -1.059330   -2.856619    0.760486
H       0.337959   -3.840582    1.197953
H       0.989998   -2.023544    2.567447
H       0.908771    0.282401    2.001975
