14

N      -0.018596    1.473353   -0.154972
C       0.000581    0.083142   -0.084359
C      -1.157237   -0.698171   -0.066081
O      -2.346063   -0.055529   -0.045613
N      -1.156841   -2.027206   -0.060504
C       0.037096   -2.615412   -0.068842
N       1.214738   -1.995194   -0.074188
C       1.179199   -0.666634   -0.079557
O       2.350404    0.007864   -0.072718
H       0.818222    1.907784    0.207403
H      -0.862538    1.885105    0.217230
H      -3.023895   -0.744935   -0.021984
H       0.051759   -3.701083   -0.067400
H       3.046826   -0.662990   -0.057042
