18

C      -0.016018    1.523081    0.022888
C       0.011485    0.024389   -0.000249
C       0.001912   -0.793238   -1.105746
C      -0.033228   -0.800589   -2.610859
C      -0.011908   -2.292740   -2.911095
C       0.028606   -2.986143   -1.766588
N       0.037746   -2.107873   -0.674647
C       0.070610   -2.156045    0.694702
C       0.054728   -0.851149    1.137030
H       0.879673    1.940181    0.498900
H      -0.070538    1.934675   -0.989365
H      -0.879602    1.905551    0.579989
H      -0.930854   -0.318743   -3.021600
H       0.825304   -0.285559   -3.062802
H      -0.027321   -2.715496   -3.904284
H       0.053030   -4.053631   -1.602578
H       0.101060   -3.091449    1.229351
H       0.072124   -0.541218    2.171969
