23

C       0.074456    1.426929   -0.255576
C       0.048627   -0.056287    0.142411
C       0.736044   -0.298903    1.493811
C      -1.372397   -0.638998    0.103842
C      -2.351649    0.002508    1.080356
O      -1.943327   -0.554014   -1.255103
C      -2.219398   -1.953445   -1.241848
C      -0.962898   -2.761255   -1.195668
C      -1.530232   -2.171418    0.081136
H       1.106659    1.770111   -0.379601
H      -0.453995    1.583126   -1.199822
H      -0.390779    2.060743    0.506813
H       0.617731   -0.602332   -0.618466
H       0.277362    0.289627    2.295445
H       0.694025   -1.354637    1.781654
H       1.790554   -0.010210    1.440977
H      -2.461529    1.070680    0.877618
H      -3.334905   -0.464761    0.981071
H      -2.017399   -0.121847    2.115442
H      -3.171536   -2.287729   -1.637796
H      -1.097356   -3.835682   -1.280430
H      -0.055120   -2.378284   -1.651202
H      -1.819971   -2.775150    0.931168
