22

C      -0.082009    1.646422    0.012273
C       0.014550    0.110724    0.075298
C       0.395780   -0.447373   -1.280322
O       1.250493   -1.271077   -1.491356
C       0.888293   -0.438139    1.220981
C       2.314944    0.114352    1.229300
N       0.233180   -0.114267    2.493682
C      -0.788081   -1.048612    2.957898
C       0.543679   -0.985340    3.620122
H       0.876661    2.102906   -0.250486
H      -0.817145    1.960048   -0.735705
H      -0.390084    2.032544    0.985781
H      -1.010710   -0.261354    0.241128
H      -0.208183   -0.030144   -2.120974
H       0.949668   -1.531657    1.081899
H       2.895732   -0.357109    2.027695
H       2.811656   -0.096669    0.279896
H       2.320448    1.192776    1.409103
H      -1.662690   -0.606197    3.426229
H      -0.992803   -1.927696    2.347691
H       1.219206   -1.822148    3.447479
H       0.662885   -0.496232    4.582702
