12

N       0.001174    1.392613    0.130858
C      -0.063094    0.023410    0.039929
C      -1.189064   -0.745171    0.011110
N      -1.151378   -2.123354   -0.015004
C      -0.002260   -2.674532   -0.019885
O       1.188387   -2.023442   -0.011917
C       1.240163   -0.644837    0.008125
O       2.307507   -0.086074   -0.011779
H       0.902470    1.779075   -0.110473
H      -0.796385    1.921975   -0.182584
H      -2.178378   -0.297845    0.013622
H       0.136667   -3.748998   -0.033098
