19

O       0.778319   -0.300243    0.954621
C      -0.134267   -0.270187   -0.143332
C      -1.464736    0.310131    0.301692
C      -2.513869    0.664873   -0.437216
C      -2.624692    0.667875   -1.950977
C      -2.117965   -0.556649   -2.681262
C      -0.843955   -0.760274   -3.038021
C       0.257243    0.112923   -2.621086
C       0.520590    0.393617   -1.340692
H       0.886146    0.605064    1.267188
H      -0.295047   -1.326796   -0.391676
H      -1.545473    0.379107    1.385099
H      -3.394484    1.024126    0.090647
H      -3.676300    0.816683   -2.215346
H      -2.086155    1.547352   -2.328207
H      -2.869908   -1.280219   -2.987345
H      -0.601311   -1.604385   -3.682050
H       0.894268    0.533983   -3.397613
H       1.331854    1.074879   -1.092051
