19

C      -0.243497    1.492739    0.211830
C       0.074385    0.024424   -0.016446
C      -1.137783   -0.950532    0.201783
C      -0.497536   -1.421664    1.539513
C       0.830780   -0.728193    1.134259
N       1.752073   -1.556066    0.386910
C       1.846593   -1.214434   -0.953549
O       2.591032   -1.703176   -1.773432
N       0.922958   -0.196247   -1.168813
H       0.674724    2.085942    0.248037
H      -0.871945    1.883200   -0.596784
H      -0.789701    1.632877    1.150373
H      -2.124218   -0.485238    0.268107
H      -1.169032   -1.735728   -0.556368
H      -0.953115   -0.952372    2.415864
H      -0.435995   -2.498655    1.705417
H       1.330493   -0.121122    1.897781
H       2.515025   -2.057010    0.809531
H       0.592986   -0.063415   -2.111637
