17

O      -0.033807    1.502483   -0.245061
C      -0.020645    0.086012   -0.303756
C      -1.331492   -0.521434    0.217353
C      -1.378440   -2.030902    0.109742
C      -2.656227   -2.719577   -0.273754
N      -1.537240   -2.700302   -1.207490
C      -0.484387   -2.802946    1.025622
O       0.121789   -2.321041    1.950464
H       0.003753    1.757537    0.682290
H       0.116857   -0.165899   -1.361335
H       0.830190   -0.335472    0.247572
H      -1.453537   -0.246296    1.271920
H      -2.167837   -0.078009   -0.334687
H      -2.896009   -3.697043    0.136751
H      -3.513939   -2.075089   -0.446708
H      -1.683944   -1.991129   -1.922233
H      -0.431386   -3.887106    0.783617
