19

C      -0.628648    1.420476   -0.377401
C      -0.354082   -0.071296   -0.301676
O      -1.570501   -0.740090   -0.021098
C      -1.443774   -2.140662    0.048863
C      -2.832992   -2.743069    0.169647
O      -3.574650   -2.619414   -1.038081
C      -4.235874   -1.458607   -1.236146
N      -4.800036   -1.243347   -2.344510
H       0.294534    1.966164   -0.593242
H      -1.352613    1.636338   -1.168101
H      -1.034120    1.785944    0.570389
H       0.065567   -0.438331   -1.252383
H       0.386467   -0.291125    0.485545
H      -0.952322   -2.537593   -0.853645
H      -0.838729   -2.441395    0.921969
H      -2.755331   -3.815391    0.367933
H      -3.369110   -2.272576    1.004326
H      -4.224380   -0.794896   -0.363990
H      -5.275607   -0.343747   -2.316761
