21

C       0.953216    1.249689    0.217831
O       0.094908    0.185505   -0.153049
C       0.524450   -0.553330   -1.261274
C       1.665941   -1.526382   -1.089450
C       0.239384   -2.030556   -1.206255
C      -0.465953   -2.648106   -0.020698
C       0.339748    0.173355   -2.564966
C       1.448000    0.799132   -3.302673
O       0.888670   -0.446688   -3.726319
H       1.972468    0.894293    0.423679
H       1.005527    2.027898   -0.555491
H       0.536761    1.686957    1.128299
H       2.336470   -1.689216   -1.925539
H       2.125426   -1.564505   -0.107093
H      -0.003937   -2.469858   -2.169912
H      -0.232407   -2.107164    0.898915
H      -1.553119   -2.624008   -0.151835
H      -0.167037   -3.694136    0.106431
H      -0.661508    0.586368   -2.701393
H       1.252647    1.644015   -3.961254
H       2.457672    0.739361   -2.899887
