16

O      -0.440148    0.446615   -0.586483
C       0.285942    0.838510    0.291673
C       1.341950    1.897809    0.124939
C       1.406810    2.812876   -1.116519
C       0.100327    3.320111   -1.792768
C       0.238686    4.625730   -0.952781
N       1.405765    4.025919   -0.215441
C       1.095205    3.232493    0.909500
O       0.686386    3.511550    1.996804
H       0.216019    0.438702    1.325997
H       2.310588    1.458055    0.393212
H       2.275238    2.693686   -1.765616
H       0.167707    3.447425   -2.874045
H      -0.778281    2.718836   -1.562040
H       0.545594    5.505654   -1.521957
H      -0.589873    4.893949   -0.293523
