18

C       0.015179    1.381036    0.147082
O      -0.046745   -0.011168   -0.076790
C       0.665510   -0.499095   -1.212535
C      -0.020473   -0.109310   -2.526962
C       2.157253   -0.220444   -1.186375
C       2.810303   -1.376763   -1.046524
N       1.931714   -2.466902   -0.966958
C       0.617283   -2.052742   -1.049923
O      -0.363033   -2.752479   -1.015608
H       1.042424    1.728358    0.325136
H      -0.413498    1.964061   -0.680131
H      -0.576968    1.573010    1.045075
H       0.002139    0.972699   -2.683303
H       0.483228   -0.579197   -3.376832
H      -1.058799   -0.450687   -2.500300
H       2.613694    0.750185   -1.303383
H       3.875547   -1.558430   -1.008433
H       2.194425   -3.427550   -0.823715
