16

O      -0.355734    1.151420   -0.373242
C      -0.168361   -0.209575   -0.102715
C      -0.349200   -0.562570    1.349305
O      -0.707542    0.474243    2.204144
C      -1.360659   -1.049832    0.318244
C      -2.759039   -0.444335    0.309067
C      -3.136633    0.108505   -0.991575
C      -3.397114    0.573400   -2.071186
H      -1.077294    1.238134   -1.011533
H       0.622294   -0.681605   -0.682180
H       0.308446   -1.290812    1.814477
H      -0.605005    1.286795    1.685756
H      -1.307189   -2.097550    0.039401
H      -3.487966   -1.206116    0.607770
H      -2.809592    0.340633    1.072276
H      -3.662693    0.968701   -3.020656
