14

C      -0.092002    1.540720    0.023755
C       0.129154    0.060568    0.006125
O      -0.706998   -0.771699    0.833277
C       0.706252   -0.776082    1.072845
C       1.351124   -1.956207    0.396485
O       2.030840   -2.822774    0.844842
O       1.036441   -1.884030   -0.956084
C       0.438072   -0.669521   -1.268423
N       0.216388   -0.254784   -2.431533
H       0.796779    2.064763   -0.337812
H      -0.924888    1.799284   -0.634939
H      -0.321293    1.874049    1.037952
H       1.057690   -0.428826    2.037305
H       0.518985   -0.930102   -3.135717
