17

O      -0.183094    0.066775   -0.226505
C      -0.014119    1.221389    0.008611
C      -0.839773    2.377906    0.578483
O       0.249587    3.281968    0.289177
C       1.136651    2.234781   -0.171917
C       2.329265    2.035044    0.741517
C       3.080507    3.314436    1.179752
C       2.569769    2.955773    2.588894
O       1.911056    1.765523    2.097034
H      -1.758566    2.626403    0.034103
H      -1.046370    2.294476    1.651975
H       1.461900    2.390296   -1.210083
H       2.954514    1.225400    0.341803
H       4.162155    3.283090    1.046072
H       2.680762    4.239837    0.765294
H       3.339826    2.712372    3.329688
H       1.855315    3.661845    3.025271
