18

C       0.044085    1.516191   -0.259484
N       0.052386    0.066277   -0.068488
C      -1.026525   -0.492784    0.799689
C      -0.127186   -1.707213    1.200911
C      -0.445480   -1.532459    2.694188
O       0.481634   -1.936809    3.676389
C      -0.391528   -0.085620    2.176974
O      -0.631990    1.070213    2.886097
C       0.778509   -0.435950    1.133368
H       1.007326    1.822387   -0.682090
H      -0.731754    1.773064   -0.988615
H      -0.134732    2.092047    0.660068
H      -2.080997   -0.512734    0.521319
H       0.006922   -2.607838    0.608732
H      -1.424333   -1.887692    3.029685
H       1.370465   -1.795042    3.332572
H      -0.270749    0.951089    3.773074
H       1.862925   -0.362065    1.240514
