15

C      -0.016022    1.435923   -0.054172
N      -0.008062   -0.006591    0.017629
N      -0.037674   -0.748335   -1.117425
C      -0.018559   -2.031835   -0.760432
C       0.024540   -2.125365    0.648816
C       0.030553   -0.811804    1.118060
C       0.073466   -0.900147    2.530259
N       0.092428   -2.178675    2.897281
N       0.062786   -2.915756    1.759132
H       0.891089    1.856240    0.393526
H      -0.057710    1.709349   -1.108063
H      -0.889315    1.848889    0.462160
H      -0.036847   -2.799274   -1.517862
H       0.091477   -0.127440    3.282626
H       0.070796   -3.916846    1.834711
