22

C       0.480496    1.467688    0.266817
C      -0.187829    0.146033   -0.132872
C       0.443090   -0.497043   -1.359376
C       0.255424    0.271134   -2.655961
N       1.757516   -1.126932   -1.120844
C       0.605959   -1.978402   -1.481069
C       0.166233   -3.011741   -0.460150
C       1.112162   -4.195410   -0.455357
O       0.778720   -5.344302   -0.595678
H       1.550415    1.314597    0.437600
H       0.365620    2.236489   -0.503554
H       0.041298    1.859865    1.188824
H      -0.125064   -0.543465    0.713090
H      -1.256035    0.307670   -0.327621
H       0.730533    1.256748   -2.607795
H       0.692350   -0.269125   -3.501964
H      -0.807564    0.426919   -2.871025
H       2.370673   -0.995229   -1.921434
H       0.579079   -2.354547   -2.503944
H       0.191974   -2.574142    0.544244
H      -0.847397   -3.370608   -0.662419
H       2.180213   -3.916273   -0.313591
