21

C       0.063796    1.477488   -0.129419
C      -0.072657   -0.009326    0.049633
C      -1.351211   -0.730503   -0.352339
C      -1.180851   -2.162069    0.204953
C      -0.241193   -2.026221    1.431994
C       0.602235   -3.264940    1.700111
O      -0.281231   -4.343509    1.976917
C       0.580005   -0.791045    1.108977
O       1.107441   -0.791522   -0.230127
H       1.026939    1.826437    0.251266
H       0.000011    1.746592   -1.189628
H      -0.736475    2.007599    0.398014
H      -2.202852   -0.218138    0.113032
H      -1.516614   -0.715378   -1.434840
H      -2.130105   -2.633264    0.463887
H      -0.697901   -2.794224   -0.544384
H      -0.830058   -1.813409    2.335267
H       1.225928   -3.470902    0.816656
H       1.280014   -3.080786    2.550142
H       0.242150   -5.144579    2.070323
H       1.223809   -0.336551    1.860121
