21

C      -0.893122    1.233810    0.050253
C      -0.072946   -0.056552   -0.067196
C       0.827467   -0.132378   -1.283737
C       2.041493   -0.611964   -1.007988
C       2.218849   -0.932863    0.450416
C       3.074440    0.077075    1.270149
C       1.772877    0.835028    1.655987
C       0.919737   -0.349082    1.088321
O       0.395042   -1.195782    2.091579
H      -0.260095    2.125995    0.028224
H      -1.605876    1.315586   -0.776900
H      -1.472274    1.253897    0.980979
H      -0.781862   -0.898637   -0.089990
H       0.481967    0.155289   -2.272232
H       2.830322   -0.764603   -1.737868
H       2.420432   -1.991687    0.639931
H       3.562449   -0.390876    2.128146
H       3.819552    0.647122    0.709701
H       1.625031    1.020911    2.722589
H       1.644393    1.774096    1.114550
H      -0.287501   -0.707400    2.565019
