18

N      -0.036447   -1.059830   -0.394488
C      -0.001545    0.083821   -0.241915
C       0.002481    1.536682   -0.046412
O       1.329301    1.998105   -0.031194
C       1.417562    3.402075    0.157522
C       2.881732    3.786580    0.124902
C       3.544505    3.745344   -1.268643
O       3.612398    5.187150   -1.325027
C       3.149077    5.305329    0.033707
H      -0.581023    2.001960   -0.857953
H      -0.518224    1.764850    0.898289
H       0.866622    3.929327   -0.639696
H       0.961238    3.687702    1.120243
H       3.420490    3.257220    0.912911
H       4.540678    3.287149   -1.294130
H       2.937396    3.324500   -2.078494
H       2.271826    5.960456    0.116978
H       3.931965    5.676752    0.707032
