20

C       0.053620    1.554024   -0.012532
C      -0.043961    0.060519    0.070749
C      -1.344350   -0.758680    0.014369
C      -0.710376   -1.801683    1.020046
C      -1.400466   -1.804489    2.388861
C      -0.545618   -3.151351    0.497717
C      -0.397812   -4.256012    0.043465
C       0.581617   -0.936280    1.005946
N       1.097313   -0.753733   -0.339862
H       1.071225    1.881410    0.215176
H      -0.194069    1.905251   -1.021456
H      -0.637123    2.036157    0.687537
H      -2.204024   -0.251611    0.460530
H      -1.627364   -1.140989   -0.970694
H      -2.403219   -2.235983    2.319948
H      -0.825668   -2.392802    3.110646
H      -1.487141   -0.782278    2.771274
H      -0.268497   -5.235063   -0.347054
H       1.252442   -0.813699    1.850504
H       0.856636   -1.529008   -0.956548
