14

C       0.061360    1.480046    0.002527
C      -0.072372   -0.006151    0.010980
C      -1.228580   -0.698867   -0.121697
C      -1.105598   -2.118044   -0.082606
O      -2.229971   -2.823599   -0.211192
N       0.014176   -2.766811    0.068076
C       1.182568   -2.073977    0.202386
O       2.279788   -2.519928    0.346919
O       1.094937   -0.634835    0.167269
H       0.729816    1.790513   -0.806976
H      -0.909605    1.960039   -0.126976
H       0.511486    1.820093    0.940741
H      -2.185046   -0.215513   -0.249140
H      -1.972552   -3.757919   -0.163410
