21

C       0.019824    1.637601    0.053020
C       0.033887    0.117711    0.007196
C       1.045235   -0.587247   -0.946805
C       1.334691   -1.599106    0.184390
C       0.664567   -0.659611    1.202064
C       0.991993   -3.110852    0.130796
C       2.249794   -3.361082   -0.732965
C       2.615033   -2.424659    0.442531
O       1.821634   -3.299313    1.345664
H       1.024413    2.032910    0.243985
H      -0.330949    2.063627   -0.893802
H      -0.638381    2.005869    0.847962
H      -0.976977   -0.257784   -0.186244
H       0.662829   -0.972799   -1.895798
H       1.912303    0.049720   -1.155247
H       1.399446   -0.047606    1.736892
H      -0.007610   -1.111235    1.934227
H       0.019159   -3.604940    0.105721
H       2.661741   -4.368390   -0.662448
H       2.274517   -2.956713   -1.747666
H       3.594621   -2.096637    0.794542
