19

C       0.218738    1.548278   -0.094199
C       0.060099    0.032546    0.029102
O       0.547153   -0.658277   -1.139537
C       1.714105   -1.418028   -0.785267
C       2.916764   -0.477638   -0.802904
C       3.146070   -0.006862    0.423097
C       2.256024   -0.668565    1.429126
C       0.729407   -0.643264    1.226762
C       1.546839   -1.782774    0.705465
H       1.267396    1.845753   -0.131694
H      -0.274499    1.900361   -1.004930
H      -0.255378    2.042749    0.761045
H      -1.016141   -0.185994    0.089132
H       1.769411   -2.264026   -1.473424
H       3.362177   -0.123022   -1.724287
H       3.848269    0.776588    0.685177
H       2.596805   -0.795155    2.451060
H       0.128545   -0.762720    2.122306
H       1.483721   -2.805249    1.053859
