17

O       0.246945   -0.065986   -0.565362
C       0.142429    1.107065   -0.354468
O      -1.042050    1.765515   -0.456485
C      -0.917752    3.140642   -0.066180
C       0.590075    3.487828   -0.055611
C       1.027532    4.266759    1.207065
C       1.478621    3.168349    2.142013
C       1.605395    1.995184    1.523920
C       1.237711    2.089968    0.056834
H      -1.492838    3.739465   -0.776074
H      -1.362052    3.254790    0.929212
H       0.863277    4.000699   -0.979527
H       1.852189    4.958253    0.990156
H       0.217294    4.878841    1.622191
H       1.701290    3.347153    3.188008
H       1.941146    1.066476    1.969166
H       2.105379    1.920373   -0.589225
