20

C       2.468129    0.390211    1.005387
C       1.241724   -0.469882    0.689266
C      -0.060135    0.288061    0.960609
N       1.290298   -0.839904   -0.726744
C       2.139934   -1.956693   -1.122012
C       0.655173   -2.066301   -1.216505
C      -0.110611   -3.038514   -0.343541
H       3.394734   -0.161738    0.819411
H       2.475728    1.285752    0.376017
H       2.462855    0.700913    2.054871
H       1.274658   -1.357240    1.345316
H      -0.116020    1.179332    0.327744
H      -0.934306   -0.333287    0.745421
H      -0.115807    0.600623    2.008137
H       2.757373   -1.807938   -2.004696
H       2.618041   -2.536999   -0.331495
H       0.207041   -1.929318   -2.200479
H       0.379985   -3.219265    0.615705
H      -1.128120   -2.684529   -0.144770
H      -0.193730   -4.003009   -0.856207
