23

C       0.377643    1.543063   -0.217305
C       0.038496    0.082846    0.067389
C       0.318572   -0.874179   -1.113025
C       1.686066   -1.466548   -0.746741
C       1.598194   -1.535019    0.780330
C       1.112399   -2.904157    1.354351
C       2.591917   -3.238292    1.685650
C       2.923487   -1.726433    1.552348
O       0.856597   -0.385479    1.151859
H       1.397052    1.639316   -0.605711
H      -0.315414    1.965417   -0.952854
H       0.307548    2.132938    0.700915
H      -1.011930    0.015054    0.380471
H      -0.439358   -1.663028   -1.153958
H       0.312942   -0.358568   -2.076597
H       1.879160   -2.436286   -1.212091
H       2.494798   -0.786364   -1.037732
H       0.521713   -2.737712    2.258921
H       0.564991   -3.576687    0.687311
H       2.793364   -3.710001    2.649153
H       3.066825   -3.835462    0.902530
H       3.848067   -1.437097    1.044941
H       2.870090   -1.213031    2.515874
