25

C      -0.371251    1.510827   -0.211821
O      -0.368060    0.102229   -0.242071
C       0.629069   -0.528405   -1.043050
C       0.434261   -0.174566   -2.526320
C       2.073430   -0.233047   -0.572291
C       2.905362   -1.453477   -1.027374
C       1.884685   -2.606182   -1.269225
C       0.501013   -2.064217   -0.835111
C       0.160089   -2.451955    0.609590
H       0.592277    1.926040    0.116297
H      -0.626480    1.957275   -1.183407
H      -1.137402    1.805542    0.510426
H       0.641688    0.881461   -2.723335
H       1.105053   -0.759437   -3.162008
H      -0.595238   -0.387119   -2.830450
H       2.467340    0.708517   -0.965591
H       2.066985   -0.151062    0.519555
H       3.456386   -1.229387   -1.945445
H       3.654929   -1.721221   -0.278075
H       1.877047   -2.892333   -2.325153
H       2.144488   -3.508788   -0.708761
H      -0.289951   -2.454473   -1.485441
H       0.935534   -2.127397    1.312223
H      -0.783325   -2.004623    0.926383
H       0.077683   -3.540948    0.691824
