19

C       0.129358    1.577786   -0.082461
C       0.003642    0.063471    0.056688
O       0.587837   -0.581741   -1.077928
C       1.507972   -1.579988   -0.666615
C       1.604616   -1.467111    0.829924
C       2.524113   -2.313068    1.642733
C       0.740333   -0.529175    1.247236
C       0.485042   -0.122380    2.575363
C       0.237532    0.249880    3.695282
H       1.182233    1.871531   -0.125446
H      -0.364334    1.910342   -0.999659
H      -0.341474    2.077961    0.769187
H      -1.065829   -0.200845    0.109664
H       1.157952   -2.581918   -0.971542
H       2.479004   -1.419700   -1.161843
H       2.313607   -3.379412    1.491191
H       3.568924   -2.155756    1.346532
H       2.428635   -2.089907    2.707506
H       0.026034    0.572348    4.684523
