16

C       0.069838   -1.169776    0.088760
C      -0.014008    0.032316    0.045844
C      -0.049973    1.444616   -0.011070
C      -1.147412    2.224331   -0.031049
C      -0.807811    3.668911   -0.003119
C      -0.070632    4.133214    1.243300
C       0.714648    3.722076    0.028793
C       1.225423    2.285582   -0.047306
H       0.125838   -2.229139    0.125789
H      -2.164086    1.850200   -0.031313
H      -1.411099    4.383325   -0.551763
H      -0.103110    5.193296    1.472691
H      -0.085269    3.479297    2.109562
H       1.249852    4.491433   -0.514559
H       1.899095    2.029434    0.778754
H       1.781833    2.099287   -0.974263
