16

O       0.126705    1.384410   -0.046928
C       0.009515   -0.001130   -0.034098
C      -0.443852   -0.691814    1.210734
N      -1.005400    0.250759    2.181174
C      -2.271262    0.790742    1.634422
C      -2.546873    0.033928    0.338204
O      -3.594974   -0.041727   -0.262538
C      -1.336411   -0.734079   -0.036449
O      -1.524705   -1.819955   -0.869855
H       0.235116    1.649666    0.877737
H       0.741562   -0.524673   -0.646362
H       0.077941   -1.554915    1.606927
H      -1.179994   -0.227513    3.055297
H      -3.106766    0.656832    2.326223
H      -2.189684    1.861255    1.410368
H      -2.418352   -1.707832   -1.230117
