18

C       0.025177    1.497136    0.189518
C      -0.187616    0.031089    0.044112
C       0.088592   -0.778114   -0.997595
C      -0.302628   -2.219700   -0.728101
C      -1.075467   -2.201571    0.519650
N       0.009449   -3.163239    0.492887
C       0.906197   -2.783445    1.610601
C       0.561418   -1.333946    1.939559
C      -0.465345   -0.955000    1.159986
H       0.760261    1.712299    0.976236
H       0.382203    1.944319   -0.742019
H      -0.902396    2.001848    0.484569
H       0.484375   -0.453743   -1.953429
H      -0.571672   -2.847510   -1.569582
H      -2.111646   -2.501209    0.666322
H       0.771394   -3.524459    2.412350
H       1.962155   -2.827088    1.312352
H       1.310594   -0.654798    2.335303
