21

C       0.102720    1.495909   -0.259594
C       0.059096   -0.013301   -0.115016
C       1.384470   -0.767388   -0.037241
C       0.555178   -0.625590    1.192752
C      -1.048798   -0.789381   -0.772362
O      -1.111366   -2.000805   -0.673949
C      -2.089858   -0.019837   -1.565546
C      -3.153118   -0.918959   -2.177824
O      -4.053908   -0.078098   -2.885793
H       0.966876    1.900623    0.275276
H       0.192929    1.806522   -1.306045
H      -0.790555    1.974894    0.155531
H       1.406819   -1.740946   -0.512031
H       2.286963   -0.173642   -0.133498
H       0.872872    0.068100    1.963566
H       0.024389   -1.504541    1.538369
H      -2.563543    0.728427   -0.917075
H      -1.592631    0.558843   -2.354762
H      -2.676606   -1.655602   -2.839574
H      -3.660634   -1.483704   -1.383385
H      -4.734240   -0.634323   -3.275808
