18

C       0.052226    1.593935    0.003276
C       0.019528    0.064916    0.031536
C       0.659979   -0.618213   -1.198263
C       1.219861   -1.954416   -0.682235
O       1.376289   -2.953682   -1.339270
C       1.459114   -1.817337    0.786993
C       2.234546   -0.572557    1.208543
C       0.742120   -0.553005    1.235863
H       1.082511    1.964238   -0.035818
H      -0.478251    1.984562   -0.871247
H      -0.420032    2.015988    0.896767
H      -1.027846   -0.258627    0.086410
H      -0.035861   -0.794142   -2.020586
H       1.487242   -0.022248   -1.605339
H       1.537581   -2.716415    1.384601
H       2.756046   -0.648233    2.155909
H       2.772988   -0.010149    0.452806
H       0.244777   -0.522936    2.199199
