15

C      -0.092905    1.450305    0.011686
C      -0.028275   -0.002714    0.007438
C       0.042767   -1.207833   -0.003005
C       0.066444   -2.617216   -0.011177
C       1.113789   -3.489915    0.036924
O       0.691451   -4.752550    0.014959
N      -0.714631   -4.767350   -0.045661
C      -1.071078   -3.503323   -0.069039
N      -2.381363   -3.107154   -0.193064
H       0.878818    1.885766   -0.245724
H      -0.823285    1.818041   -0.717593
H      -0.379543    1.838514    0.995715
H       2.181015   -3.339076    0.088075
H      -3.059079   -3.812093    0.058017
H      -2.580021   -2.197553    0.196519
