16

C      -0.239272    1.611982    0.746835
N      -0.239958    0.162211    0.679318
C      -0.916425   -0.524051   -0.280388
O      -1.577277    0.001485   -1.157666
C      -0.760671   -2.027087   -0.169423
O      -1.906654   -2.807130   -0.458853
C      -0.816061   -2.901538   -1.371324
C      -1.043138   -2.368693   -2.759889
O      -0.313385   -2.670163   -3.670876
H       0.782674    2.003910    0.726368
H      -0.784432    1.978547   -0.123270
H      -0.736569    1.968370    1.655416
H       0.251425   -0.352975    1.390889
H      -0.169670   -2.394217    0.672552
H      -0.242194   -3.827846   -1.336165
H      -1.922715   -1.712860   -2.868362
