14

N      -0.036129    1.406321   -0.213168
C      -0.041507    0.003828   -0.181491
C      -1.165776   -0.716347    0.094618
N      -2.370638   -0.164118    0.404736
C      -1.075504   -2.173078    0.092025
N      -2.107798   -2.877117    0.347480
O       0.136412   -2.700746   -0.211210
N       1.303987   -1.849534   -0.548019
N       1.136783   -0.630951   -0.495862
H      -0.350435    1.818397    0.659606
H       0.884927    1.758955   -0.443712
H      -2.560636    0.755635    0.034726
H      -3.134390   -0.827819    0.409208
H      -1.900954   -3.873349    0.289229
