15

O       0.032954    1.459739   -0.077180
C       0.013033    0.041997    0.012435
C       0.571864   -0.483153    1.322694
C      -0.261368   -1.311417    1.964454
C      -1.532036   -1.445347    1.212349
O      -2.484455   -2.142671    1.465005
C      -1.413364   -0.490683    0.033996
C      -2.579783    0.262756   -0.448294
O      -2.060640   -0.842112   -1.183264
H       0.912814    1.734526   -0.353661
H       0.546577   -0.405461   -0.839360
H       1.557089   -0.186433    1.667987
H      -0.082444   -1.820752    2.902997
H      -3.541068    0.087565    0.031082
H      -2.411011    1.243731   -0.884786
