19

C      -0.658557   -0.970167    0.771611
C      -0.237511    0.013702    0.222381
C       0.258339    1.164868   -0.481098
C       0.798519    2.339516    0.277249
N       1.695229    1.494820   -0.497860
C       2.609966    0.617535    0.232612
C       4.042192    1.113769    0.134234
C       4.583213    1.666253   -1.128204
N       4.359456    2.546041    0.038948
H      -1.033833   -1.832004    1.265919
H      -0.234639    1.356133   -1.431809
H       0.630699    3.343494   -0.103510
H       0.824092    2.250998    1.361576
H       2.324468    0.516117    1.291325
H       2.547784   -0.385444   -0.205964
H       4.722378    0.565330    0.783819
H       5.625249    1.507507   -1.391018
H       3.897590    1.753782   -1.965496
H       3.496412    3.060807   -0.121701
