18

C       0.109692    1.511105    0.067698
C      -0.059234   -0.016793   -0.079903
N      -1.450876   -0.453021   -0.128974
C       0.778113   -0.579671   -1.241137
O       0.824107    0.306691   -2.340718
C       2.149786   -0.806119   -0.576079
O       1.866061   -1.092830    0.804858
C       0.611892   -0.688932    1.125671
O       0.137640   -0.839907    2.214491
H       1.158873    1.818258    0.126211
H      -0.332265    2.010380   -0.798240
H      -0.397438    1.843446    0.977282
H      -1.821524   -0.440256    0.818569
H      -2.000083    0.203137   -0.676066
H       0.332736   -1.541282   -1.523500
H       1.075296   -0.189248   -3.125024
H       2.709153   -1.651809   -0.982831
H       2.763107    0.098794   -0.647841
