17

O      -0.004866    1.417014   -0.010764
C      -0.013833    0.031516    0.009144
C      -0.518200   -0.692595    1.261843
C      -0.862101    0.098939    2.405373
N      -1.101201    0.747313    3.333674
C      -1.357787   -0.625208   -0.026185
C      -2.614090    0.179269   -0.092314
C      -3.528687   -0.004800   -1.247935
N      -3.917942   -0.481472    0.089635
H       0.638319    1.738180    0.631497
H       0.807999   -0.452759   -0.517676
H      -0.061387   -1.647148    1.501020
H      -1.403253   -1.572141   -0.558687
H      -2.553576    1.159267    0.367986
H      -4.104050    0.836759   -1.622169
H      -3.251531   -0.734002   -2.005770
H      -3.794787   -1.489972    0.149124
