27

C       0.005771    1.561839    0.263188
C       0.126702    0.077316   -0.048905
O       0.638976   -0.558826    1.104783
C       0.729417   -1.996133    1.132437
C      -0.684712   -2.589752    1.249021
C       1.430002   -2.539397   -0.122951
C       1.545596   -2.257829    2.433356
C       1.616228   -3.733988    2.850104
C       2.956096   -1.652000    2.373154
H       0.981355    1.976252    0.533458
H      -0.374645    2.106256   -0.606635
H      -0.676769    1.722999    1.102438
H      -0.858961   -0.325414   -0.327955
H       0.792326   -0.070879   -0.912525
H      -1.311016   -2.278988    0.407928
H      -0.661508   -3.682629    1.243129
H      -1.166030   -2.256425    2.173465
H       2.375283   -2.022517   -0.305839
H       1.638851   -3.607241   -0.013380
H       0.801061   -2.423534   -1.010321
H       0.991916   -1.715987    3.211369
H       2.125677   -4.346674    2.097853
H       2.187018   -3.828478    3.779617
H       0.629575   -4.168987    3.028390
H       3.610804   -2.217364    1.700396
H       2.919860   -0.616270    2.031005
H       3.418574   -1.671679    3.365417
