19

O       0.060221    1.489595   -0.072490
C       0.029477    0.084408    0.025736
C       0.134431   -0.633370    1.409779
C      -0.925697    0.127537    2.231519
C      -2.111774   -0.328954    1.359808
C      -2.089788   -1.866688    1.575152
C      -0.770464   -1.788221    0.792654
C      -1.338180   -0.582894   -0.020612
O      -2.077046   -0.777573   -1.179382
H       0.977902    1.779296   -0.064788
H       0.687538   -0.389519   -0.715901
H       1.101748   -0.849177    1.860512
H      -1.012375   -0.210929    3.267976
H      -0.752327    1.205005    2.214621
H      -3.038784    0.243823    1.388452
H      -2.092668   -2.239764    2.604056
H      -2.852765   -2.380825    0.986000
H      -0.272853   -2.636948    0.326743
H      -2.498434    0.058388   -1.407847
