16

O       0.177576    1.410370   -0.139700
C       0.083973    0.025433    0.002075
C       0.213044   -0.522115    1.447725
N      -1.265681   -0.562584    1.533882
C      -1.382414   -0.567464    0.053559
C      -2.460619    0.212988   -0.515644
C      -3.341284    0.875308   -1.012649
C      -4.410543    1.669240   -1.559613
O      -4.619700    1.819287   -2.741626
H      -0.421081    1.820677    0.495859
H       0.734298   -0.411321   -0.755710
H       0.707092   -1.503488    1.476269
H       0.693993    0.143797    2.171149
H      -1.671865   -1.363096    2.005900
H      -1.385793   -1.573711   -0.392988
H      -5.051904    2.150198   -0.792927
