21

C      -0.530673    1.351647    0.098549
C       0.126380   -0.009527   -0.019974
O       1.292139    0.014712   -0.879096
C       2.114810   -0.606922    0.127399
C       0.965093   -0.590617    1.160135
C       1.175617    0.262845    2.381974
C       0.202948    0.193630    3.548186
C       1.597076   -0.363160    3.683205
O       1.790404   -1.748702    3.686694
H       0.165781    2.103411    0.479590
H      -0.876270    1.679699   -0.887042
H      -1.397139    1.306593    0.766760
H      -0.607171   -0.735927   -0.400182
H       2.457984   -1.603987   -0.176217
H       2.990456    0.005849    0.377933
H       0.644611   -1.586638    1.466456
H       1.607472    1.240550    2.185812
H      -0.057252    1.104795    4.075809
H      -0.600082   -0.532577    3.469667
H       2.305988    0.193603    4.295933
H       1.461706   -2.092258    4.523712
