19

C      -0.087036    1.532918   -0.037285
C      -0.014694    0.008211   -0.013250
O      -1.284447   -0.579795   -0.155925
C       1.134454   -0.568472   -0.901066
O       1.533684    0.268946   -1.959082
C       2.038237   -0.688206    0.365710
C       0.764685   -0.538204    1.201401
C       0.535869   -0.370388    2.634435
O       0.266192   -1.614765    1.973113
H       0.887498    1.991100    0.148860
H      -0.422212    1.881290   -1.020242
H      -0.791266    1.879420    0.724600
H      -1.752484   -0.110076   -0.854620
H       0.831642   -1.562961   -1.253696
H       2.221814   -0.178579   -2.460908
H       2.589267   -1.619958    0.505654
H       2.716900    0.164450    0.459966
H       1.380421   -0.378034    3.322886
H      -0.344926    0.167456    2.983392
