14

C       0.661139    1.222850   -0.407758
C       0.037624   -0.074558   -0.028241
N      -1.253892   -0.284083   -0.099556
O      -1.406849   -1.600124    0.338768
C      -0.185357   -2.041505    0.627480
N       0.751716   -1.162106    0.427517
C      -0.027791   -3.448623    1.131878
N       1.270260   -3.751654    1.381219
O      -0.973390   -4.190505    1.283298
H       1.199684    1.648143    0.444194
H       1.384691    1.074005   -1.214629
H      -0.104170    1.926873   -0.736776
H       1.994649   -3.070119    1.226051
H       1.495769   -4.670196    1.724133
