19

C      -0.338628    1.498559   -0.314502
C       0.005119    0.026819   -0.050118
C       0.920344   -0.562105   -1.103964
C       1.027866   -2.046955   -1.388006
C       0.222710   -3.101577   -0.664020
N       0.410520   -1.143909   -2.333444
C      -0.862148   -1.181815   -2.846954
O      -1.434129   -2.182456   -3.215833
H       0.567633    2.109699   -0.383364
H      -0.891156    1.618817   -1.251754
H      -0.955479    1.905420    0.492038
H       0.509794   -0.058170    0.920991
H      -0.915093   -0.561141    0.023367
H       1.834013    0.016443   -1.251303
H       2.010910   -2.392251   -1.708894
H      -0.732835   -2.721905   -0.298503
H       0.005375   -3.934466   -1.337573
H       0.793746   -3.484086    0.188252
H      -1.288405   -0.166178   -2.966972
