18

C       0.221847    1.575358    0.000675
C      -0.018283    0.056541    0.028219
C       0.628122   -0.637528   -1.150959
C       1.705295   -1.363048   -0.813920
C       1.892907   -1.302009    0.630668
N       2.857942   -1.650682    1.389351
O       3.922495   -2.217472    0.672467
C       0.657521   -0.653957    1.240819
O       0.935730    0.210727    2.317400
H       1.291615    1.801072    0.003154
H      -0.220952    2.015802   -0.898382
H      -0.222948    2.048137    0.878673
H      -1.100448   -0.119691    0.036109
H       0.265453   -0.500803   -2.164561
H       2.365430   -1.898434   -1.481452
H       4.549619   -2.434493    1.370285
H      -0.011086   -1.465016    1.575105
H       1.750922   -0.113333    2.720400
