21

C      -0.023777    1.500640    0.350307
C      -0.014961    0.009433    0.083821
O       0.882509   -0.263905   -0.959075
C       0.836534   -1.641781   -1.318802
C       1.336591   -2.518572   -0.170755
C       2.878938   -2.531110    0.033126
C       2.737626   -1.454830    1.143039
C       1.212411   -1.753253    1.190203
O       0.318378   -0.667527    1.292321
H       0.987633    1.839403    0.588880
H      -0.385039    2.039778   -0.529254
H      -0.677485    1.717127    1.198391
H      -1.020149   -0.338650   -0.222767
H      -0.198322   -1.910008   -1.585319
H       1.457632   -1.751103   -2.213243
H       0.855339   -3.499411   -0.213612
H       3.236184   -3.490946    0.414230
H       3.480661   -2.261480   -0.838999
H       3.298137   -1.602606    2.069244
H       2.924376   -0.448731    0.765019
H       0.960635   -2.425759    2.015010
