15

O      -0.004766    1.443517    0.164482
C      -0.055885    0.056867   -0.010110
C       0.572253   -0.702229    1.182872
C      -0.044040   -0.309248    2.520454
O      -0.088335   -1.052137    3.463956
C      -1.515852   -0.380349   -0.226455
O      -1.884757   -1.520919   -0.144098
C       0.716398   -0.331403   -1.274604
O       1.298104    0.503852   -1.919082
H       0.569160    1.783686   -0.542989
H       0.478607   -1.783092    1.057078
H       1.639497   -0.447790    1.229964
H      -0.429612    0.729928    2.574071
H      -2.185856    0.466176   -0.484628
H       0.713033   -1.404309   -1.539426
