19

C      -0.028073    1.552924    0.076165
O       1.355367    1.937565   -0.045961
C       2.119975    0.746383    0.084125
C       2.119322   -0.134814   -1.191719
C       0.598455   -0.269978   -1.467881
C       0.020944    0.029192   -0.050396
C       1.252146   -0.270881    0.856118
C       1.931546   -1.605032    0.545279
O       2.606533   -1.386751   -0.711139
H      -0.424044    1.888716    1.045597
H      -0.605255    2.032773   -0.721657
H       3.109256    0.983217    0.475686
H       2.738765    0.180565   -2.030622
H       0.231982    0.440946   -2.213426
H       0.381081   -1.280573   -1.821205
H      -0.909989   -0.481524    0.198862
H       1.093997   -0.069898    1.916459
H       2.676703   -1.877839    1.301291
H       1.218711   -2.436422    0.455252
