17

O       0.108220    1.533622    0.060902
C       0.045594    0.125369    0.037288
C       0.263808   -0.641901    1.396769
C      -1.165915   -1.160303    1.335361
O      -1.459263   -2.472736    1.558086
C      -2.158751   -0.084739    1.213758
C      -1.377005   -0.398829   -0.064460
C      -1.984816   -1.160108   -1.134467
O      -2.947646   -1.893905   -0.959496
H       1.025002    1.795065    0.196381
H       0.683852   -0.290528   -0.754246
H       0.994749   -1.447345    1.308422
H       0.501504   -0.016018    2.262219
H      -2.265887   -2.678676    1.057275
H      -3.193133   -0.408743    1.168822
H      -1.990433    0.892788    1.655988
H      -1.477048   -1.114669   -2.121504
