25

C      -0.934414    0.874189   -2.477279
C      -0.421289   -0.045053   -1.360231
C      -1.550280   -0.836038   -0.742278
O      -2.037030   -1.991783   -1.445428
C      -1.530760   -2.172994   -0.118649
C      -0.391061   -3.162245    0.130325
C       0.727344   -3.123675   -0.923422
C       0.186421   -2.874150    1.529024
C      -1.029550   -4.569112    0.116379
H      -0.116854    1.452472   -2.917686
H      -1.403626    0.287608   -3.273031
H      -1.680123    1.582214   -2.099391
H       0.342500   -0.712042   -1.759215
H       0.052857    0.556290   -0.573131
H      -2.363036   -0.188907   -0.394220
H      -2.331194   -2.327005    0.613881
H       1.363334   -2.241636   -0.814130
H       1.370847   -4.002560   -0.811542
H       0.311190   -3.131932   -1.934146
H      -0.590849   -2.919702    2.300059
H       0.953158   -3.611915    1.788253
H       0.645842   -1.881087    1.572484
H      -1.459681   -4.791196   -0.865229
H      -0.280422   -5.335002    0.342867
H      -1.829125   -4.651093    0.860654
