19

C       0.068996    1.279910   -0.028011
O      -0.075154   -0.062812    0.395166
C      -1.217903   -0.707359   -0.148091
C      -0.966647   -0.996538   -1.629789
O      -1.724785   -0.750502   -2.528904
C      -1.408593   -2.012646    0.587623
C      -1.913536   -1.989548    2.017887
C      -2.787936   -2.516971    0.911617
O      -3.865770   -1.750678    0.461292
H       0.957410    1.676356    0.468649
H       0.204184    1.366919   -1.115980
H      -0.803427    1.886765    0.256846
H      -2.115870   -0.082933   -0.060469
H       0.031331   -1.464229   -1.808988
H      -0.664429   -2.768829    0.352119
H      -1.481505   -2.680465    2.733143
H      -2.171261   -1.015474    2.419507
H      -2.940539   -3.594453    0.853035
H      -4.547500   -1.767189    1.140927
