16

C       0.028009    1.591111    0.153458
O       1.442249    1.627266   -0.319842
C       1.202403    0.291478   -0.826958
C       0.399276    0.049863   -2.105004
N      -0.130662   -1.030823   -1.178105
C       1.331743   -1.330740   -0.728876
C       1.243710   -1.717410    0.718386
C       0.401430   -0.812224    1.229111
C       0.028535    0.044780    0.062252
H      -0.052988    1.979830    1.171752
H      -0.622557    2.149169   -0.524234
H      -0.357870    0.781571   -2.394382
H       0.921190   -0.344676   -2.978726
H       1.906475   -1.916481   -1.447109
H       1.746915   -2.548451    1.189466
H       0.021522   -0.710234    2.235908
