13

C       0.029174    1.504418    0.009294
C       0.036252   -0.000003    0.001281
O       1.028367   -0.689963   -0.012013
C      -1.351830   -0.686996    0.011139
O      -2.367066   -0.043363    0.024409
C      -1.295147   -2.217685    0.002595
C      -2.610949   -2.840010    0.011674
N      -3.647869   -3.347244    0.018731
H       1.053031    1.877626    0.001514
H      -0.522798    1.880268   -0.858316
H      -0.506188    1.871064    0.891128
H      -0.721107   -2.541545   -0.873273
H      -0.704890   -2.550583    0.864191
