16

O      -0.064544   -0.017889    0.189874
C      -0.014012    1.186997    0.104077
C       1.252731    1.949904    0.015145
C       1.217001    3.292847   -0.059357
C       2.456842    4.106989   -0.056039
O       2.429484    5.318016   -0.126840
C       3.753288    3.307960    0.090024
N       3.698266    1.962310   -0.477062
C       2.561003    1.191377    0.015444
H      -0.935015    1.809640    0.082181
H       0.277098    3.839959   -0.085045
H       4.569803    3.877959   -0.359957
H       3.973452    3.229430    1.165431
H       3.639727    2.029854   -1.488419
H       2.771259    0.854770    1.042048
H       2.451106    0.277140   -0.574163
