19

C       0.951361   -1.027961   -1.066176
C       0.125225   -0.469912    0.091749
O       0.275433    0.953363    0.197877
C      -1.324636   -0.859816    0.010166
C      -2.052404   -1.501756   -0.978511
C      -3.368226   -1.552110   -0.482995
N      -3.462820   -0.986247    0.717517
N      -2.213752   -0.569155    1.002800
C      -1.946839    0.069585    2.277614
H       1.986933   -0.695015   -0.965911
H       0.930293   -2.121582   -1.075452
H       0.567147   -0.670962   -2.027920
H       0.548098   -0.842727    1.033174
H      -0.182960    1.344311   -0.555196
H      -1.681175   -1.879119   -1.917290
H      -4.249384   -1.968834   -0.948387
H      -1.531325   -0.643671    2.998780
H      -1.241919    0.889071    2.131556
H      -2.894356    0.446673    2.661366
