20

C      -0.057898    1.562259   -0.203921
C      -0.048796    0.049450    0.061649
C      -1.426425   -0.530880    0.112960
N      -2.427540   -0.126103    0.875115
C      -3.448261   -0.978117    0.551384
C      -4.806584   -0.892397    1.170698
C      -5.510801    0.439894    0.870603
N      -3.135688   -1.882024   -0.366071
N      -1.839118   -1.577938   -0.633094
H       0.958998    1.963884   -0.176699
H      -0.489545    1.787159   -1.183830
H      -0.657296    2.073416    0.552748
H       0.535374   -0.471161   -0.706065
H       0.448267   -0.148617    1.018872
H      -5.401844   -1.734278    0.806130
H      -4.705820   -1.010144    2.256316
H      -6.481986    0.486428    1.372421
H      -4.903185    1.280845    1.215360
H      -5.677120    0.561252   -0.204397
H      -1.326750   -2.118024   -1.310746
