20

C      -0.104771    1.363955    0.007441
O      -0.046917   -0.045799    0.014784
C       0.624560   -0.594858    1.063097
C       1.271317    0.025323    2.112523
N       1.819543   -0.970674    2.898097
C       2.472600   -0.757015    4.168139
C       1.507173   -2.189090    2.355526
C       0.768863   -2.005759    1.207022
C       0.235903   -3.048291    0.274749
H       0.900988    1.805267   -0.042582
H      -0.671200    1.655336   -0.879096
H      -0.610885    1.748097    0.904701
H       1.394703    1.063519    2.368823
H       1.754822   -0.567791    4.976620
H       3.058798   -1.642177    4.425774
H       3.153868    0.096935    4.103700
H       1.836230   -3.101374    2.829576
H      -0.854875   -2.989782    0.182513
H       0.642556   -2.935360   -0.737136
H       0.488239   -4.053182    0.625877
