19

C       0.057997    1.475025    0.096203
C       1.369144    0.760446   -0.058420
C       1.750609    0.044531    1.243678
C       0.400809   -0.725698    1.204228
O       0.627977   -2.104423    0.992735
C      -0.456408   -2.762434    0.353136
C      -0.930878   -2.070502   -0.902440
C      -0.668736   -0.781093   -1.130187
C       0.028549   -0.014512   -0.099450
H      -0.229565    1.908778    1.053183
H      -0.262009    2.056519   -0.763921
H       2.041623    0.979744   -0.879035
H       2.574479   -0.661193    1.126274
H       1.935268    0.682399    2.114147
H      -0.290399   -0.572376    2.048468
H      -0.088700   -3.766609    0.113720
H      -1.298721   -2.894374    1.056744
H      -1.485819   -2.672612   -1.615787
H      -0.975864   -0.290331   -2.049904
