17

C      -0.155528    1.347875    0.135253
N      -0.047598   -0.073391   -0.119006
C       0.672111   -0.572273   -1.154386
O       1.295661    0.064184   -1.972992
O       0.595905   -1.937548   -1.148852
C       1.320044   -2.575340   -2.200564
C       1.098620   -4.078170   -2.004202
C       1.789493   -4.865977   -3.020810
N       2.340105   -5.479477   -3.829966
H       0.423883    1.863483   -0.631246
H      -1.196280    1.685962    0.080530
H       0.246963    1.609611    1.120123
H      -0.514546   -0.732305    0.480760
H       0.949166   -2.243186   -3.174150
H       2.381529   -2.319338   -2.141733
H       1.455468   -4.377901   -1.013117
H       0.027234   -4.301964   -2.042574
