21

C       0.051844    1.529646   -0.097372
C       0.010713    0.003275    0.009037
C      -1.413561   -0.557301   -0.036779
C      -1.458380   -2.089054    0.131343
O      -0.851071   -2.511569    1.353061
C      -2.826217   -2.598991    0.001049
C      -3.966181   -2.984209   -0.077589
C      -5.322365   -3.523619   -0.170478
O      -5.394267   -4.769130   -0.849266
H       1.080376    1.902007   -0.063699
H      -0.397618    1.877180   -1.034390
H      -0.498629    1.999608    0.725455
H       0.596885   -0.438827   -0.807708
H       0.488316   -0.324227    0.938231
H      -2.025901   -0.103713    0.754824
H      -1.897414   -0.298480   -0.986567
H      -0.835579   -2.542105   -0.650993
H      -1.453316   -2.275201    2.067518
H      -5.752667   -3.592201    0.841950
H      -5.962609   -2.838338   -0.737232
H      -4.739916   -5.352376   -0.450571
