19

C      -0.503489    1.555157    0.139599
C       0.036138    0.135217   -0.032691
C      -1.065672   -0.918094    0.128603
C       0.967988   -0.098548   -1.278025
C       2.083675   -0.584517   -0.340689
C       2.992791   -1.739014   -0.450436
O       3.474509   -0.399841   -0.509085
C       1.262079   -0.170289    0.871387
O       1.473762   -0.074399    2.045244
H       0.288155    2.302867    0.029394
H      -1.276990    1.767569   -0.606519
H      -0.943618    1.678429    1.134051
H      -1.854452   -0.764298   -0.616016
H      -0.677018   -1.933860    0.001241
H      -1.517151   -0.853212    1.123428
H       0.609990   -0.825629   -2.009721
H       1.235553    0.828285   -1.791417
H       3.261922   -2.294433    0.446457
H       3.022334   -2.292834   -1.387934
