17

C      -0.086471    1.508391   -0.001421
C       0.033653   -0.002025    0.029727
O       1.107445   -0.569827    0.062119
C      -1.222266   -0.785934    0.019346
N      -2.421531   -0.196266   -0.015754
N      -3.287553   -1.217435   -0.013917
C      -2.694042   -2.448048    0.021056
C      -3.479566   -3.717971    0.028941
C      -1.340904   -2.197195    0.043689
H       0.911390    1.947832    0.010118
H      -0.631050    1.828117   -0.895219
H      -0.665954    1.861443    0.857199
H      -4.274591   -1.017081   -0.037240
H      -4.103747   -3.816625   -0.866508
H      -2.801714   -4.572924    0.058594
H      -4.139417   -3.783597    0.901555
H      -0.536701   -2.912902    0.073358
