15

N       0.578894    0.063051   -0.643034
C      -0.291300    0.222187    0.380255
O      -0.292375    1.156427    1.156055
C      -1.377709   -0.866554    0.504292
N      -0.997104   -2.202529    0.084092
C      -0.855331   -3.321619    0.822116
N      -0.490217   -4.339517    0.062725
C      -0.414023   -3.774260   -1.168820
N      -0.714941   -2.484463   -1.215028
H       1.262144    0.785582   -0.800288
H       0.470049   -0.692075   -1.304988
H      -1.668394   -0.906207    1.553886
H      -2.246247   -0.546931   -0.080651
H      -1.032164   -3.344665    1.887042
H      -0.136862   -4.321713   -2.057342
