16

N      -0.141903    1.385900    0.031666
C       0.016118   -0.015107   -0.056504
C       0.918617   -0.910605   -0.921804
C       0.042059   -2.073510   -0.398289
N       0.460972   -2.142326    1.049587
C      -0.301630   -0.878121    1.198019
C      -0.657823   -0.308315    2.452208
N      -0.943502    0.124826    3.486802
C      -1.106000   -1.032691   -0.076670
H       0.655624    1.833511    0.471258
H      -0.282710    1.805797   -0.880748
H       0.743702   -0.712629   -1.983190
H       1.988244   -0.971843   -0.704202
H      -0.056935   -3.014129   -0.932517
H      -0.098258   -2.870415    1.495247
H      -2.164174   -0.943853   -0.281588
