18

C       0.777662    1.145748   -0.003255
C       0.066143   -0.192412    0.130692
C       0.846074   -1.421306    0.507387
N      -0.108729   -0.853788    1.441761
C       0.328673   -0.208459    2.689369
C       1.762501    0.016417    2.890934
C       2.943155    0.161014    3.071152
C      -1.076384   -0.333532   -0.745623
C      -2.008314   -0.419282   -1.500329
H       1.663699    1.197655    0.630415
H       1.082279    1.297504   -1.042792
H       0.103922    1.966275    0.264665
H       0.576987   -2.387312    0.089367
H       1.906390   -1.275252    0.703784
H      -0.212413    0.740140    2.785210
H      -0.029764   -0.845865    3.507412
H       3.982766    0.302363    3.237280
H      -2.838543   -0.507917   -2.156239
