19

C       0.146144    1.608299   -0.386549
C       0.240219    0.114983   -0.132265
C       1.491337   -0.734017   -0.413360
C       2.696576   -0.040041    0.139211
O       3.772135    0.251576   -0.307923
C       2.120547    0.016607    1.580213
C       2.131349    1.276375    2.437094
C       0.837485   -0.605243    1.020236
O       0.177027   -1.536440    1.789033
H       1.085018    2.122005   -0.171382
H      -0.091186    1.792786   -1.439616
H      -0.642624    2.066642    0.220107
H      -0.639312   -0.422247   -0.497313
H       1.480128   -1.516782   -1.162523
H       2.648360   -0.787230    2.113214
H       1.567105    2.095481    1.985883
H       1.702015    1.076969    3.424033
H       3.161604    1.616653    2.581450
H      -0.723136   -1.637437    1.463629
