21

C      -0.042995    1.531443   -0.036468
C       1.305941    0.855821   -0.012836
C       0.050717    0.022539    0.015264
C      -0.340739   -0.689767    1.300600
C       0.570482   -1.870009    1.685211
O       1.084837   -2.644264    0.608765
C       0.251405   -2.891678   -0.488123
O       0.359580   -1.921288   -1.493574
C      -0.347637   -0.714847   -1.251705
H      -0.374877    2.051780    0.855755
H      -0.368386    1.993877   -0.962801
H       1.899295    0.852067   -0.920651
H       1.893486    0.922157    0.896758
H      -0.331190    0.011102    2.143679
H      -1.379825   -1.030228    1.207654
H       1.461813   -1.495430    2.198814
H       0.035456   -2.519885    2.395233
H       0.608687   -3.821446   -0.938299
H      -0.801041   -3.012854   -0.174710
H      -1.431632   -0.922063   -1.218758
H      -0.155450   -0.090004   -2.128954
