21

C       0.344535    1.518527    0.077922
C       0.081591    0.009723    0.045035
C       0.541870   -0.613703   -1.258045
O       1.966357   -0.489781   -1.466378
C       2.120335   -1.897526   -1.744916
C       3.212850   -2.542186   -0.921591
C       0.618656   -2.170312   -1.394168
C       0.333201   -2.969046   -0.220890
C       0.095580   -3.639080    0.749636
H       1.409322    1.723701   -0.063980
H      -0.205885    2.036370   -0.715589
H       0.037280    1.950414    1.034806
H       0.594736   -0.484118    0.876761
H      -0.989310   -0.197581    0.167074
H      -0.006027   -0.167249   -2.101525
H       2.309068   -2.056186   -2.816206
H       3.010955   -2.441507    0.147362
H       3.295357   -3.607364   -1.161376
H       4.171191   -2.063168   -1.145463
H       0.046623   -2.551402   -2.244096
H      -0.117443   -4.230792    1.605295
