21

C      -0.091104    1.564556    0.065917
C       0.035064    0.028540    0.011107
C      -1.374877   -0.535499    0.033977
O      -1.844792   -1.210011    0.913449
C       0.791338   -0.483742   -1.243303
C       2.237866    0.048682   -1.321069
O       2.831572   -0.133586   -2.587020
C       0.776373   -2.018207   -1.260177
O       1.415894   -2.478864   -2.451658
H       0.883444    2.045282    0.168908
H      -0.564721    1.954079   -0.841844
H      -0.699793    1.868273    0.923059
H       0.533848   -0.331710    0.918676
H      -1.985190   -0.248071   -0.856835
H       0.267569   -0.127752   -2.141497
H       2.257037    1.125655   -1.134278
H       2.829699   -0.426325   -0.516829
H       2.677924   -1.057098   -2.827430
H       1.300513   -2.393740   -0.367414
H      -0.254157   -2.398534   -1.218345
H       1.523727   -3.432595   -2.394684
