12

O      -0.084824    1.388754   -0.180667
C       0.005403    0.049757   -0.014738
C       1.136472   -0.661309    0.049383
O       1.161490   -2.024397    0.219781
C       0.012383   -2.736663    0.334779
O       0.022761   -3.914778    0.481685
O      -1.150003   -2.034755    0.272208
C      -1.269292   -0.652924    0.101544
N      -2.397432   -0.098566    0.056924
H       0.799008    1.768229   -0.247859
H       2.136461   -0.254545   -0.023807
H      -3.147612   -0.783161    0.159344
