12

N       0.009131    1.364480    0.149093
C      -0.017259   -0.010272    0.046423
C      -1.072044   -0.886761    0.010867
O      -0.555386   -2.156244   -0.021530
C       0.761261   -1.963191   -0.002437
N       1.158946   -0.732795    0.035795
N       1.601234   -3.144032   -0.031941
O       1.027267   -4.224238   -0.070823
O       2.806581   -2.953970   -0.016078
H       0.891644    1.762609   -0.139094
H      -0.781444    1.846660   -0.251581
H      -2.143791   -0.801080    0.007006
