15

N      -0.161649    1.511261    0.155863
C       0.067336    0.159683   -0.002678
N      -0.889079   -0.732269    0.003230
H      -1.863738   -0.415754    0.022399
C      -0.877091   -2.103826   -0.004770
C      -2.145392   -2.746796   -0.025160
O      -3.274048   -2.278725   -0.036173
O      -1.874462   -4.117730   -0.026332
C      -0.508965   -4.278835   -0.006493
C       0.151272   -3.095920    0.008400
H       0.503905    2.110236   -0.312292
H      -1.113244    1.823384    0.012549
H       1.094119   -0.177121   -0.035299
H      -0.161154   -5.298530   -0.006006
H       1.222185   -2.965566    0.027271
