16

C       0.008186    1.431400   -0.036514
N       0.013304   -0.017194    0.036128
N      -0.002751   -0.765516   -1.081434
C       0.007695   -2.006906   -0.600450
C      -0.004709   -3.149098   -1.531970
O       0.003100   -4.308932   -1.202187
N       0.030009   -2.086980    0.761027
C       0.032945   -0.823566    1.136571
C       0.054635   -0.314782    2.536793
H       0.903790    1.845367    0.435718
H      -0.005858    1.705140   -1.090237
H      -0.877609    1.840411    0.458089
H      -0.022728   -2.832423   -2.596241
H       0.944286    0.294346    2.731372
H      -0.823320    0.302813    2.755913
H       0.060260   -1.166853    3.216537
