20

C       0.016519    1.506004   -0.061530
C      -0.025575    0.007712    0.086349
C      -1.343101   -0.732846    0.363122
C      -0.504816   -1.827974    1.078680
C      -0.058523   -2.860226    0.036996
C       1.000231   -2.109056   -0.744340
C       1.746755   -1.192678    0.132609
C       0.706099   -0.800772    1.190526
N       0.875654   -0.635671   -0.977597
H       1.049446    1.867006   -0.089930
H      -0.466717    1.808706   -0.997402
H      -0.501834    1.994924    0.770029
H      -1.963429   -0.156802    1.057616
H      -1.954674   -1.044940   -0.489895
H      -0.908862   -2.257527    1.995569
H       0.401588   -3.745067    0.494640
H      -0.897782   -3.203342   -0.577763
H       1.500482   -2.596892   -1.575611
H       2.821584   -1.050291    0.157059
H       0.981857   -0.398260    2.162972
