19

O      -0.019484    0.002352    0.069216
C      -0.045255    1.201835   -0.000288
C      -1.277365    2.111508   -0.090048
C      -0.653284    3.511159    0.059260
C      -0.444303    3.953675    1.515037
C       0.397028    2.920848    2.293308
C       1.600500    2.427922    1.463010
C       1.161195    2.155224    0.012490
O       0.639849    3.353622   -0.558559
H      -1.733682    1.992588   -1.078291
H      -2.021907    1.839548    0.662041
H      -1.185836    4.275878   -0.509864
H       0.074654    4.918532    1.491719
H      -1.409742    4.115993    2.007972
H       0.736803    3.346903    3.242271
H      -0.231805    2.061393    2.557488
H       2.382804    3.194260    1.427475
H       2.034226    1.524490    1.903854
H       1.981201    1.791185   -0.609756
