16

N       0.134537    1.526707    0.106596
C       0.009672    0.079161   -0.031695
C       0.538731   -0.455317   -1.309810
N       0.935588   -0.846860   -2.322881
C       0.702550   -0.574552    1.173502
C       1.000894   -2.089518    1.195000
O       2.434441   -1.805404    1.301880
C       2.214510   -0.452767    1.211873
N       3.003795    0.519234    1.139242
H       1.121065    1.773517    0.165458
H      -0.257587    1.997707   -0.702316
H      -1.056183   -0.181109   -0.002496
H       0.223268   -0.195103    2.077852
H       0.644356   -2.642895    2.065542
H       0.787113   -2.633107    0.272155
H       3.981462    0.225503    1.149258
