18

C      -0.136419    1.575083   -0.027396
C       0.103483    0.064267    0.075352
C       0.744145   -0.499362   -1.189573
C       0.848557   -2.063585   -1.345035
N      -0.061808   -1.958630   -2.477551
C      -0.146543   -0.583130   -2.459440
O      -0.709626    0.210712   -3.162108
C       2.228386   -2.585605   -1.658455
O       2.584446   -2.940612   -2.752230
H       0.809345    2.116848   -0.136788
H      -0.757694    1.810869   -0.895434
H      -0.635676    1.951588    0.870020
H       0.746913   -0.157477    0.935981
H      -0.846925   -0.453847    0.255414
H       1.690070    0.007474   -1.409825
H       0.442325   -2.610524   -0.482857
H      -0.206642   -2.607842   -3.237362
H       2.912498   -2.619108   -0.780000
