21

C      -0.096787    1.458269   -0.243380
N      -0.075343    0.050023    0.080559
C      -1.301781   -0.630651    0.508309
C      -0.433752   -1.567795    1.379543
C       0.708233   -0.521340    1.202243
C       2.082806   -1.038128    0.797102
C       0.795554    0.372615    2.477743
C       1.728209    1.491266    2.368611
N       2.475552    2.368177    2.272800
H       0.914905    1.813557   -0.457958
H      -0.703168    1.607650   -1.143600
H      -0.520846    2.097710    0.552400
H      -1.979574    0.001078    1.108335
H      -1.884130   -1.080253   -0.303403
H      -0.773659   -1.757112    2.399262
H      -0.202635   -2.516623    0.892877
H       1.989173   -1.683828   -0.078972
H       2.758406   -0.214126    0.545768
H       2.542859   -1.611033    1.610443
H      -0.194552    0.765548    2.733703
H       1.114250   -0.253114    3.319435
