15

N      -0.087386   -1.151321   -0.128465
C      -0.040767    0.000949   -0.054795
C      -0.017994    1.451370   -0.001568
C       0.114604    2.122196    1.403806
O       1.503830    1.618969    1.482628
C       1.381656    2.144643    0.109513
C       0.669384    3.371825    0.700462
N      -0.008634    4.511801    0.141818
C       1.107529    4.699591    1.121976
H      -0.740097    1.898973   -0.688598
H      -0.527275    2.008073    2.274698
H       2.239080    2.054594   -0.556216
H       0.310551    4.710323   -0.803750
H       0.800661    5.105104    2.081167
H       2.062144    5.066281    0.754504
