16

O       0.067531    1.404020    0.101156
C      -0.003893   -0.006285    0.023043
C      -1.467835   -0.487808   -0.072130
C      -1.698482   -0.857371   -1.559296
C      -0.338672   -1.439215   -1.995236
O      -0.111169   -1.524030   -3.370933
C       0.607461   -0.473836   -1.304236
O       1.591795   -0.000231   -1.821726
H       0.919256    1.659265   -0.277959
H       0.526254   -0.474025    0.867707
H      -1.611194   -1.366916    0.563709
H      -2.144962    0.291652    0.281115
H      -2.523388   -1.556561   -1.707513
H      -1.900318    0.037770   -2.157409
H      -0.217051   -2.429715   -1.517840
H       0.716431   -1.047844   -3.536016
