19

C      -0.507397    0.769517    0.157421
O       0.417959   -0.293340    0.106808
C       0.440097   -0.931435   -1.129765
C       1.439577   -2.075572   -1.128710
O       2.161743   -2.337414   -0.201209
C       1.410032   -2.928690   -2.403824
C       0.491346   -4.130955   -2.129056
C       1.157836   -5.329055   -1.493833
O      -0.690137   -4.071189   -2.372641
H      -0.269854    1.552954   -0.579428
H      -1.536470    0.424070   -0.026812
H      -0.450634    1.197664    1.160389
H      -0.543624   -1.353266   -1.410449
H       0.718068   -0.241984   -1.950574
H       0.997600   -2.368912   -3.245912
H       2.430180   -3.254624   -2.617032
H       1.759162   -5.002066   -0.638529
H       0.410496   -6.060839   -1.185884
H       1.848996   -5.788403   -2.210539
