15

N      -0.123262    1.227694   -0.280467
C      -0.062367   -0.019235   -0.123990
O      -1.211754   -0.745893   -0.129906
C      -1.067837   -2.139603    0.017421
C      -2.476853   -2.755867    0.083713
N      -2.615911   -3.217998   -1.277688
C      -1.420035   -3.292334   -1.938886
O      -1.173756   -3.760098   -3.010745
O      -0.459042   -2.710271   -1.124764
H       0.810712    1.630950   -0.242100
H       0.839036   -0.625039    0.025908
H      -0.436698   -2.368277    0.881272
H      -2.519254   -3.571078    0.816818
H      -3.207974   -1.989700    0.350226
H      -3.400740   -3.745412   -1.618295
