21

C       2.942800   -0.673232    0.146189
N       1.593986   -1.187144    0.336423
C       1.371880   -2.124573    1.426725
C       0.790912   -0.748863    1.481524
C       1.221070    0.253369    2.510297
C       1.368543    1.795386    2.388585
N       1.646845    1.574287    3.884316
C       0.459532    0.599507    3.815828
C       2.478314    0.371683    3.414642
H       3.542397   -0.607266    1.065822
H       3.469225   -1.334044   -0.550193
H       2.893279    0.321881   -0.307260
H       0.746672   -2.986207    1.206223
H       2.206378   -2.329300    2.098086
H      -0.263428   -0.640807    1.223656
H       2.227879    2.189166    1.838512
H       0.468075    2.385299    2.195150
H      -0.510354    1.097783    3.727868
H       0.455020   -0.141689    4.620175
H       2.626226   -0.385378    4.190428
H       3.427006    0.658469    2.953998
