16

C      -0.312614    1.565314   -0.152126
N      -0.846736    0.259460   -0.476948
C      -0.741106   -0.802234    0.355721
O      -0.248543   -0.788243    1.470176
C      -1.313285   -2.087996   -0.201512
O      -1.969545   -2.054494   -1.467532
C      -0.724994   -2.772868   -1.380645
C       0.401032   -2.257416   -2.109457
C       1.353163   -1.876215   -2.735657
H       0.491956    1.849329   -0.839764
H      -1.093843    2.331794   -0.190927
H       0.087698    1.513399    0.861282
H      -1.285541    0.095600   -1.369873
H      -1.777986   -2.712994    0.558697
H      -0.845279   -3.854571   -1.426981
H       2.196590   -1.530904   -3.281638
