17

C      -0.016905    1.500933   -0.227468
C       0.088648    0.006014   -0.028017
N       0.241883   -0.586758    1.087877
N      -0.022902   -0.778260   -1.201449
C       0.087234   -0.203489   -2.536572
C       1.518259    0.179345   -2.883126
O       1.821599    1.185772   -3.467495
C      -0.239826   -2.152475   -1.112708
O      -0.315335   -2.874179   -2.080485
H       0.745099    1.884111   -0.912416
H      -0.992731    1.771907   -0.645004
H       0.100192    2.004246    0.733275
H       0.260504    0.085614    1.851030
H      -0.217684   -0.999966   -3.226005
H      -0.568430    0.657430   -2.679231
H       2.277953   -0.562398   -2.549099
H      -0.340846   -2.485767   -0.073698
