17

C       0.040683    1.562778    0.012982
C       0.020458    0.021161    0.023848
C       0.725561   -0.487701    1.198333
C       1.289678   -0.881060    2.183534
C      -1.434971   -0.548031   -0.028344
C      -2.244155   -0.053599   -1.243366
C      -1.406346   -2.015391   -0.025696
N      -1.402044   -3.170472   -0.059287
H       1.067787    1.918617    0.119623
H      -0.361754    1.961109   -0.921122
H      -0.542412    1.964786    0.847472
H       0.538905   -0.338747   -0.874888
H       1.794547   -1.249370    3.042315
H      -1.943283   -0.234062    0.891721
H      -1.723137   -0.282753   -2.177764
H      -3.220358   -0.542996   -1.272339
H      -2.405898    1.024491   -1.187597
