19

C       0.075404    1.534163    0.177267
C      -0.008439    0.029681   -0.135499
C      -1.399627   -0.529934   -0.066477
C      -2.197519   -0.897210   -1.125862
O      -2.008237   -0.898920   -2.474125
N      -3.398769   -1.343585   -0.656169
C      -3.404429   -1.275418    0.727912
N      -4.577605   -1.663032    1.416872
C      -2.184417   -0.780852    1.112753
H       1.109296    1.893524    0.133250
H      -0.521461    2.115433   -0.532809
H      -0.313197    1.742679    1.178959
H       0.419842   -0.150502   -1.132851
H       0.647072   -0.514569    0.557078
H      -1.114386   -0.588755   -2.649042
H      -4.185912   -1.613675   -1.220302
H      -4.520589   -2.615348    1.767549
H      -4.743565   -1.060138    2.214082
H      -1.863694   -0.624433    2.132687
