21

C      -0.056235    1.573481    0.019795
C       0.043054    0.049405   -0.023819
C       0.875869   -0.510277   -1.218870
C       1.636462   -1.696414   -0.628726
C       2.513894   -1.398696    0.576940
O       2.168769   -0.130927    1.139394
C       0.764920   -0.562531    1.177468
C       1.162254   -2.006640    0.783595
C       0.671003   -3.304637    1.345189
H       0.941048    2.010582    0.126274
H      -0.507988    1.967578   -0.896243
H      -0.668173    1.910218    0.863737
H      -0.966799   -0.383908   -0.055167
H       0.234039   -0.819996   -2.048855
H       1.559968    0.253827   -1.602936
H       1.948228   -2.523367   -1.258906
H       3.523401   -1.765196    0.728219
H       0.321129   -0.381270    2.159863
H      -0.384944   -3.474149    1.101642
H       1.238934   -4.145545    0.933757
H       0.771747   -3.337925    2.436008
