19

O       0.079422    1.420547   -0.160074
C       0.058329    0.009108   -0.020914
C       0.651442   -0.540477    1.307604
C      -0.534153   -1.313265    1.927652
O      -1.294446   -1.706649    0.794312
C      -1.407687   -0.491358    0.043701
C      -2.340943    0.451532    0.814647
C      -1.795282    0.666135    2.234639
O      -1.310566   -0.548201    2.815033
H       0.993388    1.698338   -0.270219
H       0.557157   -0.460830   -0.878018
H       1.478415   -1.229588    1.121256
H       1.010539    0.262517    1.955803
H      -0.254324   -2.213671    2.476229
H      -1.811219   -0.741246   -0.939425
H      -2.440621    1.413743    0.305539
H      -3.324902   -0.025893    0.855471
H      -0.994544    1.416863    2.207392
H      -2.574321    1.028395    2.910150
