17

O       0.071241    0.065719   -0.016586
C      -0.008860    1.265476    0.050589
C      -1.217519    2.205622    0.005399
C      -0.817250    3.267754    1.071097
C       0.285736    3.554367    0.016721
N      -0.762078    3.220917   -1.014823
C       1.120726    2.282418    0.081290
C       2.416285    2.013919    0.743117
N       2.328857    2.086218   -0.725427
H      -2.211457    1.772653   -0.087038
H      -1.555088    4.068286    1.123113
H      -0.514717    2.926547    2.062660
H       0.801155    4.509737   -0.069551
H      -0.368599    2.803972   -1.861293
H       2.957974    2.832586    1.209171
H       2.549172    1.039731    1.206955
H       2.312876    1.137036   -1.099944
