20

C       0.063013    1.516292    0.275539
C      -0.036437    0.029582   -0.114339
C      -1.439414   -0.497244   -0.118527
C      -2.118345   -0.958307   -1.183183
C      -3.456716   -1.395246   -0.805231
C      -3.618310   -1.200953    0.694765
C      -2.274964   -0.570148    1.144446
N      -4.402785   -1.872949   -1.521360
O      -4.022816   -1.962564   -2.877877
H       1.104722    1.849402    0.251989
H      -0.509559    2.140780   -0.417031
H      -0.320492    1.694223    1.284695
H       0.409839   -0.119620   -1.103279
H       0.564219   -0.559085    0.593867
H      -1.747425   -1.013429   -2.197177
H      -4.474005   -0.558240    0.917609
H      -3.804320   -2.158207    1.189862
H      -1.769102   -1.167970    1.913523
H      -2.416669    0.424491    1.584294
H      -4.815362   -2.330278   -3.281286
