15

O       0.001899    1.375634    0.067038
C       0.022094   -0.000302    0.005627
C      -0.292209   -0.820923    1.228005
C      -1.155065   -1.029890    0.012184
O      -2.515650   -0.826305    0.081061
C      -0.431434   -1.808820   -1.052795
N      -0.254565   -0.885873   -2.213503
C       0.691017   -0.827086   -1.059045
H      -0.266934    1.696078   -0.802596
H       0.381662   -1.589011    1.600191
H      -0.792100   -0.244458    2.000679
H      -2.802940   -0.522055   -0.788487
H      -0.361575   -2.882962   -1.182276
H       0.206478   -1.417711   -2.954102
H       1.745458   -1.040078   -1.194008
