17

N      -0.004563   -1.158596   -0.085765
C      -0.016543   -0.003701   -0.045262
C      -0.006710    1.455515    0.008507
C       1.421326    2.033095    0.029553
C       1.410640    3.564237    0.074917
C       2.827448    4.200147    0.026015
O       2.788978    5.062756   -1.137770
C       1.555967    4.898130   -1.665162
N       0.721067    4.126739   -1.105563
H      -0.546481    1.854635   -0.855589
H      -0.559230    1.774835    0.900244
H       1.965302    1.644893    0.897973
H       1.960536    1.701406   -0.864585
H       0.868384    3.885431    0.973336
H       3.064049    4.814736    0.897365
H       3.625112    3.465383   -0.121777
H       1.376537    5.471098   -2.568266
