21

C      -0.109830    1.516487   -0.001442
C       0.029595   -0.001638    0.025951
C       1.197936   -0.595387   -0.820136
C       2.119131   -0.429908    0.424466
C       0.799100   -0.593668    1.232682
O       0.591311    0.057122    2.458155
C       0.476801   -2.099005    1.309233
O       0.974997   -2.809053    0.185406
C       0.941653   -2.089794   -1.043781
H       0.846697    2.026545    0.143248
H      -0.520483    1.842505   -0.963281
H      -0.784806    1.855569    0.789515
H      -0.951237   -0.459945   -0.154072
H       1.464519   -0.085793   -1.749053
H       2.908886   -1.169048    0.577605
H       2.523090    0.579104    0.513185
H       1.157543   -0.350554    3.122917
H       0.966418   -2.544215    2.185879
H      -0.610786   -2.233089    1.425260
H      -0.024757   -2.233069   -1.554820
H       1.721932   -2.540362   -1.667086
