21

C      -0.027904    1.530043    0.021780
C       0.003353   -0.005880    0.005436
C       0.651550   -0.551220    1.278388
O      -1.326178   -0.520378   -0.027666
C       0.754779   -0.502188   -1.247012
C       0.872812   -2.023228   -1.400635
O       0.850816   -2.201354   -2.812609
C      -0.055803   -1.246805   -3.287883
O      -0.005482   -0.128898   -2.408238
H       0.979488    1.948839    0.117634
H      -0.466381    1.914263   -0.903602
H      -0.630848    1.876361    0.865577
H       0.123077   -0.168703    2.155859
H       0.603093   -1.643064    1.308132
H       1.699290   -0.242824    1.346862
H      -1.681149   -0.261126   -0.887655
H       1.745331   -0.029081   -1.300796
H       1.808453   -2.436510   -1.021423
H       0.019396   -2.523331   -0.922413
H       0.245646   -0.948452   -4.298405
H      -1.086822   -1.641034   -3.303292
