19

O       0.128853    1.390664    0.185003
C       0.033845   -0.020666    0.266343
C      -1.323651   -0.550303   -0.205903
C      -1.440046   -2.056170   -0.099911
O      -0.581008   -2.774920   -0.950147
C      -1.808167   -2.711552    1.202697
C      -2.798751   -2.719281    0.035437
C      -4.011729   -1.960743    0.097980
C      -5.034659   -1.329138    0.148743
H       0.022973    1.639570   -0.738938
H       0.844971   -0.505036   -0.302062
H       0.185509   -0.267272    1.323150
H      -2.116502   -0.071879    0.375951
H      -1.477960   -0.267459   -1.256132
H       0.295068   -2.788562   -0.549806
H      -1.338529   -3.658909    1.441853
H      -2.050512   -2.081559    2.051011
H      -2.864101   -3.662597   -0.497988
H      -5.937910   -0.772855    0.190493
