16

O      -1.266474    0.663157   -0.985458
C      -0.620833    1.463524   -0.373748
C      -0.883037    2.920343    0.109587
C       0.632265    3.007703    0.342640
N       0.926323    2.009330    1.379079
C       0.855497    1.569896   -0.054013
C       1.987112    0.843330   -0.739266
C       3.289981    1.423938   -0.436239
C       4.341229    1.931679   -0.148799
H      -1.262261    3.532627   -0.713145
H      -1.505054    3.046740    0.997721
H       1.288347    3.845949    0.150737
H       1.927431    2.068683    1.581292
H       1.971475   -0.212148   -0.436476
H       1.810721    0.849022   -1.822178
H       5.285481    2.360502    0.081089
