16

C      -0.039333    1.375917   -0.318049
O       1.112989    1.691241    0.487985
C       1.419474    0.294095    0.664101
C       0.071891   -0.133896    0.023988
C      -0.951769   -0.650721    0.975184
N      -1.599023   -1.762701    0.711838
O      -2.467107   -1.961644    1.782067
C      -2.311558   -0.957861    2.656572
C      -1.370805   -0.086119    2.219404
H      -0.942510    1.889103    0.029129
H       0.124362    1.606322   -1.378568
H       2.303180   -0.009448    0.088334
H       1.564617    0.029867    1.717067
H       0.146147   -0.808116   -0.828946
H      -2.935303   -1.000358    3.536199
H      -1.020052    0.816141    2.692164
