16

C       0.238983    1.359323   -0.404151
C      -0.006787   -0.016887    0.211318
O       0.346133   -0.058505    1.596606
C      -1.421465   -0.496990    0.022445
C      -2.395565   -0.271770   -0.933606
C      -3.488960   -1.066016   -0.525707
N      -3.229566   -1.732668    0.596162
N      -1.969432   -1.373782    0.901566
H       1.273299    1.663942   -0.226173
H       0.061620    1.342854   -1.483490
H      -0.431480    2.106616    0.034627
H       0.681301   -0.736400   -0.251201
H      -0.161468    0.629304    2.043808
H      -2.326792    0.367692   -1.798403
H      -4.453384   -1.173371   -1.000488
H      -1.523984   -1.723911    1.733662
