19

C       0.370490    1.289959   -0.091353
N      -0.069581   -0.098732    0.002362
C       0.546357   -0.771481    1.138348
C      -1.527240   -0.206836    0.023770
C      -2.107132    0.028618   -1.336708
N      -3.301767    0.508892   -1.637989
C      -3.313940    0.454145   -3.000222
N      -2.211533   -0.017802   -3.558769
N      -1.451594   -0.290353   -2.470949
H       1.457975    1.323725   -0.206083
H      -0.080642    1.769276   -0.964110
H       0.099950    1.882430    0.801888
H       0.269039   -0.324391    2.110792
H       0.254511   -1.825928    1.152245
H       1.635324   -0.720241    1.044860
H      -1.787352   -1.222581    0.346063
H      -2.011519    0.482604    0.736273
H      -4.155933    0.776244   -3.594642
H      -0.513843   -0.648142   -2.554532
