16

N      -0.063096   -1.127332    0.374878
C      -0.062089    0.012331    0.186340
C      -0.050959    1.453287   -0.075339
C       1.351817    2.011175   -0.199473
O       1.996372    2.366691    1.042860
C       1.723613    3.407033    0.096686
C       2.906577    3.780829   -0.788330
C       3.187473    2.494453   -1.540459
C       2.317608    1.528397   -1.237643
H      -0.610639    1.638832   -0.999798
H      -0.572390    1.966140    0.738409
H       1.010310    4.158718    0.425520
H       2.651708    4.606279   -1.464953
H       3.766993    4.109280   -0.193307
H       4.031410    2.389134   -2.212394
H       2.307513    0.520194   -1.632062
