17

C      -0.090717    1.459896    0.095798
C       0.006856   -0.065762   -0.005242
C       0.917919   -0.642716    1.058813
O       0.361035   -0.434384    2.419513
C       0.324381   -1.769185    2.684795
O      -0.075803   -2.326012    3.654634
C       0.954997   -2.162397    1.335747
C       0.210861   -3.178370    0.501696
O      -0.142911   -3.016788   -0.636601
H       0.889003    1.931277   -0.039759
H      -0.760667    1.855644   -0.672211
H      -0.476924    1.762280    1.073289
H      -0.985668   -0.518051    0.084546
H       0.394071   -0.369658   -0.983066
H       1.910801   -0.185004    1.022232
H       1.964037   -2.557862    1.506007
H       0.022109   -4.130542    1.042869
