20

C      -0.039871    1.569473    0.046401
C       1.506333    1.418771    0.009884
C       1.766069    0.790017    1.393429
C       0.811599   -0.439289    1.254188
C       1.638569   -1.621300    0.716372
C       2.166447   -1.076180   -0.645683
C       1.272439    0.147546   -0.890005
C       0.001726    0.026367    0.006968
H      -0.485509    2.067202    0.913656
H      -0.448331    1.992418   -0.875232
H       2.158108    2.235168   -0.305683
H       2.806062    0.491791    1.558695
H       1.480678    1.468632    2.202987
H       0.227255   -0.667319    2.147663
H       2.438979   -1.918698    1.401060
H       1.000204   -2.498391    0.558568
H       3.226682   -0.805003   -0.600145
H       2.063652   -1.814661   -1.446429
H       1.083921    0.402702   -1.934163
H      -0.859266   -0.581213   -0.276940
