14

O      -0.358877    0.017081    0.094964
C      -0.108786    1.130680   -0.268335
N       1.134828    1.761982   -0.216885
C       2.342574    1.244307    0.262342
O       2.474879    0.125957    0.699543
C       3.486374    2.213757    0.186433
C       4.349572    2.303021    1.406684
N       4.833346    1.633614    0.207032
H      -0.862391    1.817559   -0.704743
H       1.155409    2.710034   -0.564260
H       3.366771    3.088329   -0.448366
H       4.827273    3.249996    1.639935
H       4.053305    1.696601    2.257638
H       4.717785    0.626278    0.327133
