15

O       0.208739    1.434831   -0.068225
C       0.117861    0.051206   -0.060632
C      -1.294364   -0.624528   -0.007801
N      -2.313650    0.198793   -0.677960
C      -2.560187   -0.367770   -1.801656
N      -1.925996   -1.567563   -2.076109
C      -0.867182   -1.685017   -1.076487
C       0.372003   -0.770852   -1.361922
O       1.070346   -0.635938   -2.321221
H      -0.580579    1.757166   -0.525910
H       0.763668   -0.334693    0.740015
H      -1.634049   -0.950604    0.976177
H      -3.274572    0.024548   -2.519913
H      -1.712795   -1.795169   -3.037507
H      -0.668160   -2.713633   -0.774025
