19

C      -0.080705    1.495867    0.051295
C       1.221019    0.712932    0.134603
C      -0.102140    0.009084   -0.039767
O      -0.640264   -0.686007    1.063909
C      -0.459049   -2.074604    0.789308
C      -0.683876   -2.223912   -0.713617
O      -2.075220   -2.178647   -1.084933
C      -1.934158   -0.859598   -1.654431
C      -0.437777   -0.795754   -1.275397
H      -0.457606    1.933988    0.968455
H      -0.284593    2.072356   -0.844762
H       1.908502    0.759880   -0.703738
H       1.688682    0.639227    1.109922
H       0.561396   -2.397259    1.051205
H      -1.183022   -2.637955    1.382437
H      -0.166839   -3.082100   -1.154614
H      -2.143437   -0.860150   -2.731103
H      -2.577073   -0.123868   -1.157585
H       0.267017   -0.667530   -2.095790
