11

O       0.119344    1.338776   -0.079260
C       0.068778   -0.003257   -0.072759
C      -0.038671   -0.845150   -1.137575
O      -0.051757   -2.120171   -0.637883
C       0.048814   -1.973789    0.703545
N       0.123781   -0.725848    1.091003
C       0.061293   -3.134153    1.502133
C       0.071684   -4.126893    2.181248
H       0.195295    1.620543    0.840802
H      -0.109678   -0.727835   -2.202801
H       0.081237   -5.000894    2.784935
