18

C      -0.074965    1.399209    0.116814
N      -0.018129   -0.047914    0.037016
C       0.561855   -0.572203   -0.978229
C       1.204122    0.047786   -2.119296
C       1.762170   -0.712040   -3.093425
N       1.771582   -2.086962   -3.091211
C       1.195387   -2.637417   -2.066888
N       0.605192   -1.989845   -1.034435
C      -0.010919   -2.725636    0.062494
H       0.922378    1.864693    0.150678
H      -0.617406    1.852930   -0.727227
H      -0.599371    1.684733    1.032820
H       1.227845    1.127548   -2.175539
H       2.244219   -0.248695   -3.950014
H       1.165961   -3.722646   -1.999838
H       0.103411   -3.795397   -0.119688
H       0.461636   -2.447836    1.007245
H      -1.068629   -2.463473    0.137674
