13

O      -0.100455    1.316719    0.009159
N       0.029656   -0.068035   -0.000703
C      -1.123172   -0.636975    0.008888
C      -2.471592   -0.091622    0.026360
C      -3.317398   -1.143595    0.018861
N      -2.631690   -2.350513   -0.014110
C      -1.247406   -2.134560   -0.000900
N      -0.297890   -2.981798    0.003045
H       0.817641    1.609555    0.000044
H      -2.729111    0.952707    0.035961
H      -4.398366   -1.146053    0.027233
H      -3.057042   -3.258270    0.044904
H      -0.653755   -3.939620   -0.006213
