18

C       0.017366    1.494532    0.081860
C      -0.071283    0.008911   -0.012858
C      -0.052280   -0.804639   -1.076317
C       0.017466   -2.242671   -0.544921
C       1.452355   -2.445403    0.009385
C       1.423908   -1.448142    1.185317
O       2.327184   -1.116966    1.903134
C      -0.037254   -0.930110    1.208251
N      -0.716947   -2.159882    0.746938
H       0.927176    1.794138    0.616744
H       0.033693    1.962937   -0.905861
H      -0.827019    1.909129    0.646391
H       0.022215   -0.519581   -2.118489
H      -0.345442   -3.033348   -1.201042
H       1.598305   -3.456552    0.400130
H       2.251508   -2.219497   -0.698117
H      -0.366668   -0.535041    2.167698
H      -1.693775   -1.938714    0.556683
