14

C      -0.032555    1.484367    0.033885
N      -0.011608    0.026219    0.066133
C      -0.027682   -0.784424   -1.019663
N      -0.002302   -2.072673   -0.715552
C       0.032435   -2.116185    0.640954
C       0.027361   -0.834370    1.149202
N       0.055668   -0.416255    2.507309
O       0.088991   -1.300378    3.356268
O       0.045161    0.793887    2.744134
H       0.858481    1.890993    0.512499
H      -0.063439    1.789709   -1.013460
H      -0.908971    1.866576    0.557491
H      -0.058435   -0.378392   -2.020562
H       0.059235   -3.036175    1.202166
