16

O       0.034266   -0.083906   -0.218315
C       0.011053    1.087380    0.059410
C       1.220096    1.989830    0.026807
C       1.168731    3.255064   -0.907597
C       1.474943    4.153420    0.305467
C       0.400245    3.979209    1.351694
C       1.452102    2.918231    1.233350
C       2.372685    5.259919    0.300561
N       3.108434    6.153663    0.281448
H      -0.940085    1.582896    0.360860
H       2.095508    1.377468   -0.193582
H       1.965203    3.236349   -1.650817
H       0.218603    3.465715   -1.407238
H       0.497921    4.619979    2.220842
H      -0.623426    3.814043    1.029917
H       2.124674    2.698867    2.052610
