16

C      -0.123587    1.458077   -0.165979
C       1.282846    0.980677    0.065618
C       0.144351   -0.019815    0.038550
C      -0.292830   -0.711346    1.268769
C      -0.750116   -2.010899    1.377453
N      -1.036839   -2.217283    2.687790
N      -0.799766   -1.140479    3.455722
C      -0.348821   -0.226662    2.600921
H      -0.624265    1.987025    0.637769
H      -0.399626    1.792981   -1.159859
H       1.975690    0.986721   -0.768701
H       1.741295    1.183948    1.027375
H       0.083315   -0.633195   -0.855197
H      -0.888144   -2.781808    0.635543
H      -1.391189   -3.054450    3.117244
H      -0.078192    0.752892    2.968432
