14

C       0.048501   -1.186792   -0.208865
C       0.051073    0.007291   -0.086565
C       0.010611    1.467893    0.053172
C       1.356256    2.046185    0.097626
C       2.452747    2.531310    0.155162
C      -0.873973    2.081029   -1.045294
C      -0.673015    3.435575   -1.566370
O      -0.296798    2.277049   -2.322074
H       0.061378   -2.243115   -0.318123
H      -0.490244    1.699690    1.006504
H       3.429199    2.947019    0.198486
H      -1.876721    1.652669   -1.056260
H      -1.525848    3.990232   -1.954074
H       0.158026    4.031776   -1.197340
