16

C      -0.110991    1.395490   -0.181049
O      -0.129747   -0.025893   -0.154783
C       0.722137   -0.624955   -1.066599
C       0.633374   -2.137610   -0.889424
C      -0.387024   -2.551607   -1.941714
O      -0.982512   -3.587335   -2.028336
C      -0.491124   -1.374852   -2.900618
N      -1.156892   -1.372584   -3.970581
O       0.290973   -0.360820   -2.429594
H       0.902898    1.778641    0.002536
H      -0.469845    1.782080   -1.140763
H      -0.772408    1.732130    0.618590
H       1.733432   -0.204498   -1.005570
H       1.590294   -2.617606   -1.119817
H       0.329808   -2.419965    0.118136
H      -1.068569   -0.475670   -4.453913
