14

O      -0.051266    1.446362   -0.008204
C      -0.004211    0.036702   -0.020747
C      -1.385675   -0.585989    0.063431
O      -2.082711   -0.185656   -1.141332
C      -3.338271   -0.567806   -1.244239
N      -4.018143   -1.295591   -0.399938
O      -5.246666   -1.391089   -0.988396
N      -5.231724   -0.699212   -2.186090
N      -4.087513   -0.202003   -2.346127
H      -0.547635    1.724098   -0.785723
H       0.512908   -0.351040   -0.911621
H       0.569266   -0.272226    0.858993
H      -1.342553   -1.679843    0.107736
H      -1.938871   -0.211307    0.930273
