16

O       0.782020    1.096587    1.312582
C       0.534315    1.712426    0.310364
C       1.193570    1.447964   -1.040137
N       1.240324    2.646834   -1.853755
C       2.254145    3.574934   -1.573846
C       2.664038    4.637985   -2.360119
N       3.635564    5.274625   -1.650500
N       3.885915    4.712156   -0.464418
C       3.052205    3.672457   -0.406007
H      -0.225624    2.525617    0.280051
H       2.170566    0.971556   -0.867246
H       0.555127    0.714137   -1.548743
H       1.142345    2.458890   -2.840136
H       2.346987    4.976451   -3.333194
H       4.158070    6.088392   -1.925360
H       3.050530    3.037333    0.466733
