19

C      -0.195605    1.541340    0.278780
C      -0.042377    0.067759    0.077354
C       0.052159   -0.634987   -1.102761
C       0.062423   -0.221922   -2.537551
C       1.467550   -0.175615   -3.147530
O       1.329151    0.185899   -4.511215
N       0.183748   -1.958984   -0.713906
C       0.154699   -1.992502    0.646870
N       0.021706   -0.792468    1.156906
H       0.682943    1.968292    0.775747
H      -0.331440    2.065846   -0.671047
H      -1.059642    1.758159    0.915450
H      -0.551248   -0.899167   -3.145490
H      -0.387300    0.770387   -2.636040
H       2.080743    0.550118   -2.592125
H       1.952806   -1.159874   -3.039822
H       2.207591    0.279721   -4.890743
H       0.251395   -2.750617   -1.331534
H       0.231150   -2.915179    1.203223
