18

O      -0.336344    0.248584   -0.982825
C      -0.090864    1.405604   -0.726277
N       1.006392    1.847150   -0.022305
C       1.246186    3.279423    0.137708
C       1.403160    3.743059    1.566162
C       2.309692    3.275558    2.419309
C       3.326186    2.191578    2.169723
C       2.995386    1.079317    1.207776
C       1.991464    0.919258    0.342199
H      -0.740865    2.245463   -1.037412
H       2.146031    3.542460   -0.436396
H       0.407720    3.800488   -0.331760
H       0.740794    4.542217    1.887057
H       2.355272    3.721801    3.410533
H       4.282596    2.661460    1.880069
H       3.555496    1.717633    3.134036
H       3.677348    0.235210    1.270597
H       1.871053   -0.017903   -0.188752
