14

C       0.011193   -1.160415    0.005180
C      -0.020703    0.042086    0.031777
C      -0.067017    1.469041    0.075988
C      -0.773734    2.404619    1.090435
C      -0.116682    3.401972    0.116812
C       1.126127    2.487396   -0.107666
O       1.042917    2.517188   -1.558309
C      -0.340045    2.470978   -1.113948
H       0.043618   -2.221389   -0.024772
H      -1.865885    2.367242    1.094632
H      -0.384493    2.383833    2.111350
H      -0.125671    4.490097    0.112150
H       2.106272    2.488262    0.368043
H      -1.136230    2.451950   -1.857393
