14

C       0.098173    1.491053    0.023016
C      -0.070708    0.019515    0.036563
C      -1.134844   -0.798049   -0.030778
N      -2.516727   -0.582570   -0.052392
N      -0.638218   -2.106756   -0.006738
C       0.733666   -2.088908    0.139795
O       1.505943   -3.003030    0.239810
O       1.084212   -0.758308    0.148996
H       0.788943    1.803265   -0.768716
H      -0.862996    1.980790   -0.157773
H       0.496984    1.868276    0.972446
H      -2.746622    0.388124    0.116999
H      -2.945406   -0.871616   -0.927186
H      -1.185053   -2.935542    0.150902
