19

C       0.062996    1.396019   -0.140887
C       1.323891    0.645869    0.086652
C       1.817801    0.368805    1.513952
C       0.559095    0.618054    2.394540
C      -0.029804   -0.514649    1.503292
N       0.002115   -0.060109    0.075151
C       1.388405   -1.124698    1.597122
C       1.990066   -2.368445    1.105799
N       1.795212   -2.120870    2.565725
H      -0.323789    2.086135    0.599713
H      -0.178353    1.673703   -1.163347
H       1.998893    0.440729   -0.739661
H       2.813661    0.713411    1.793295
H       0.710738    0.263194    3.414272
H       0.097842    1.604914    2.415588
H      -0.931404   -1.066588    1.761074
H       1.367585   -3.156891    0.693039
H       3.001585   -2.333387    0.708066
H       2.682996   -1.866389    2.993786
