19

C      -0.795626    0.645295   -3.217110
C      -1.160748   -0.439030   -2.235061
O      -2.237771   -1.005417   -2.276230
C      -0.126768   -0.793409   -1.171348
C      -0.094659   -2.298427   -0.848107
C       0.930725   -2.626781    0.238734
O      -1.349677   -2.773904   -0.388033
C       0.253711   -3.095948   -2.111372
O       0.562573   -2.613470   -3.172159
H      -0.410995    1.529308   -2.696866
H       0.011561    0.267407   -3.854931
H      -1.657332    0.910443   -3.830358
H       0.862893   -0.447459   -1.479261
H      -0.398259   -0.249303   -0.257519
H       0.641277   -2.132434    1.170216
H       0.949018   -3.705134    0.422208
H       1.934991   -2.299106   -0.045215
H      -2.014226   -2.378075   -0.979390
H       0.161943   -4.195052   -1.969557
