17

O       0.429319    0.785079   -0.834037
C       0.067569   -0.340764   -0.084421
C       0.439384   -0.179565    1.395152
O       1.379891    0.478476    1.792810
N      -0.480785   -0.868208    2.117271
C      -1.592604   -1.390587    1.324589
C      -1.422612   -0.636400    0.002029
C      -2.423729    0.323546   -0.514060
N      -2.252690   -1.011297   -1.132182
H       1.096381    1.243157   -0.299243
H       0.590510   -1.239518   -0.461357
H      -0.434066   -0.918079    3.122618
H      -1.513111   -2.474853    1.172573
H      -2.554971   -1.182868    1.800795
H      -3.364657    0.463699    0.011131
H      -2.044633    1.191904   -1.042402
H      -1.722620   -0.922973   -1.996680
