16

O       0.632875    0.329893   -1.137104
C       0.066180   -0.391228   -0.095286
C       0.197852    0.092196    1.370796
C      -1.244213   -0.440951    1.639257
C      -2.120307    0.295982    2.520518
C      -2.845723    0.923183    3.244832
C      -1.505416   -0.409300    0.082231
C      -2.091005    0.828111   -0.399189
N      -2.481847    1.834947   -0.813832
H       0.260940    1.221166   -1.139601
H       0.418201   -1.420492   -0.205192
H       1.008224   -0.313288    1.977764
H       0.216792    1.184301    1.421178
H      -1.202845   -1.492020    1.941986
H      -3.489256    1.480164    3.880166
H      -2.043445   -1.262377   -0.335463
