24

C      -0.304951   -0.863106   -4.645848
C      -0.262699   -1.815935   -3.448680
C      -1.589554   -1.879100   -2.685522
C      -1.541273   -2.787518   -1.449582
O      -0.519380   -2.382968   -0.533678
C      -2.890244   -2.845638   -0.759520
C      -3.878388   -3.922524   -1.063030
N      -3.236748   -3.850497    0.241946
C      -2.271562   -4.885978    0.589155
H       0.654699   -0.841630   -5.171689
H      -1.073238   -1.162878   -5.367601
H      -0.533227    0.161234   -4.330003
H       0.001718   -2.825202   -3.791561
H       0.528399   -1.515618   -2.753682
H      -1.881562   -0.866789   -2.366466
H      -2.390547   -2.230717   -3.349070
H      -1.238410   -3.791962   -1.764198
H      -0.787039   -1.538053   -0.153916
H      -3.281527   -1.855108   -0.513593
H      -4.944487   -3.711951   -1.093503
H      -3.553502   -4.708296   -1.746255
H      -1.776177   -5.356710   -0.274024
H      -1.497343   -4.455602    1.229327
H      -2.792264   -5.672121    1.144957
