15

C      -0.030984    1.506056    0.004925
C      -0.008752    0.008107   -0.035784
N      -0.037840   -0.621545   -1.164174
C      -0.017003   -1.999633   -1.187326
C       0.033712   -2.702520   -0.037826
O       0.057747   -4.036159    0.051736
O       0.065760   -2.093974    1.165151
C       0.046966   -0.694777    1.254019
N       0.076702   -0.119566    2.382193
H       0.856934    1.893767    0.515494
H      -0.072661    1.894813   -1.013132
H      -0.892875    1.866161    0.576639
H      -0.042208   -2.500053   -2.144822
H       0.093872   -4.277778    0.986341
H       0.113676   -0.793016    3.147371
