21

C      -0.008492    1.578416   -0.053247
C       0.034665    0.050726   -0.012029
C      -1.358092   -0.531002   -0.270770
C       1.119164   -0.717137   -0.853576
C       2.494371   -0.113512   -0.456726
C       2.224246   -0.703317    0.924666
C       1.268617   -1.736851    0.349922
C       0.702822   -0.634286    1.187450
O       0.179705   -0.778564    2.458691
H       0.945917    2.034076    0.222498
H      -0.279686    1.940178   -1.051979
H      -0.766473    1.955388    0.643459
H      -1.757330   -0.173031   -1.226513
H      -1.335381   -1.624672   -0.298955
H      -2.057192   -0.233751    0.517965
H       0.895913   -0.983665   -1.885485
H       3.312713   -0.643731   -0.953538
H       2.644029    0.964927   -0.573008
H       2.905784   -0.842875    1.755225
H       1.233879   -2.812661    0.432735
H       0.418292   -0.001253    2.975591
