17

O       0.427441    0.974266   -0.756787
C       0.023167   -0.133182    0.032169
C       0.445585   -0.039439    1.520651
C      -0.554451   -0.928528    2.288306
C      -1.834126   -0.877661    1.456776
C      -2.304505    0.478382    0.996551
C      -1.476419   -0.390036    0.072675
H      -0.108534    1.727994   -0.485929
H       0.512828   -0.995095   -0.436520
H       1.486607   -0.333814    1.671048
H       0.367489    1.005263    1.842590
H      -0.193355   -1.963004    2.328012
H      -0.700308   -0.600870    3.323606
H      -2.577156   -1.654278    1.601207
H      -3.355835    0.582621    0.752270
H      -1.871903    1.370006    1.441439
H      -1.950369   -0.791579   -0.815844
