16

C      -0.051652    1.568295    0.017827
C       0.041119    0.061365    0.044723
C       1.328805   -0.710404   -0.216205
N       2.592194   -0.058249   -0.035479
C       2.722677    0.469147    1.246776
O       3.565214    1.248122    1.630742
N       1.684341   -0.077876    1.996441
C       0.711475   -0.723743    1.165468
H       0.843400    2.046535    0.422160
H      -0.185479    1.931220   -1.006851
H      -0.906568    1.915655    0.607785
H      -0.831973   -0.453546   -0.350341
H       1.323198   -1.583739   -0.858702
H       3.067938    0.422085   -0.781547
H       1.442563    0.387038    2.856135
H       0.235455   -1.607244    1.575809
