17

C       0.031438    1.529528   -0.080172
C      -0.039140    0.027943    0.049959
C      -1.190769   -0.700206   -0.637398
C      -1.872946   -1.662610    0.327119
O      -0.954227   -2.552201    0.986039
C       0.100293   -2.022047    1.650398
O       0.660752   -2.649119    2.505526
C       0.566233   -0.654605    1.212588
O       1.213094   -0.654602   -0.071207
H       0.914761    1.919780    0.430909
H       0.089867    1.816398   -1.135777
H      -0.860250    1.999756    0.347653
H      -1.935718    0.012113   -1.006669
H      -0.792322   -1.242905   -1.500106
H      -2.428016   -1.106243    1.093657
H      -2.577255   -2.318040   -0.188850
H       1.084271   -0.097933    1.989982
