15

C      -0.163457    1.447298    0.057415
C      -0.009559   -0.047918   -0.083801
O       0.910055   -0.332563   -1.088911
C       0.970405   -1.719898   -1.362451
C       1.165750   -2.538278   -0.093455
O       1.407550   -3.713331   -0.103079
C       1.027124   -1.773228    1.253357
O       1.414879   -2.232247    2.285967
O       0.452721   -0.551151    1.192991
H       0.812675    1.897368    0.252282
H      -0.574031    1.863663   -0.865038
H      -0.834788    1.675479    0.887432
H      -0.973125   -0.539934   -0.296542
H       0.052157   -2.072098   -1.860820
H       1.809482   -1.892960   -2.040764
