17

C       0.108846   -1.207961    0.083171
C       0.038726   -0.005867    0.038294
C      -0.058906    1.400698   -0.029196
C      -0.051728    2.479374    1.052580
C       1.001976    2.499837   -0.045266
C       0.274778    3.348252   -1.114268
C      -0.464867    4.482646   -0.361395
C      -1.165385    3.320287    0.386228
C      -0.946836    2.385719   -0.863065
H       0.172976   -2.266510    0.124969
H       0.185401    2.358315    2.100821
H       2.061167    2.394742    0.146475
H       0.749893    3.485557   -2.084088
H       0.124418    5.200462    0.217573
H      -1.159995    5.015038   -1.018651
H      -2.117200    3.429885    0.903117
H      -1.706034    2.129402   -1.596514
