16

C       0.034813    1.505959   -0.150206
C       0.036346    0.018854    0.089842
O       1.288145   -0.671277    0.065107
C       0.561628   -0.653227    1.305001
C       1.235316    0.062784    2.460056
N       2.340103   -0.758776    2.943857
C      -0.042442   -1.931644    1.659324
N      -0.566861   -2.922318    1.939732
H       0.865734    2.007263    0.347639
H       0.116295    1.699999   -1.224540
H      -0.906026    1.944346    0.197973
H      -0.757904   -0.521209   -0.427901
H       1.522111    1.070288    2.127891
H       0.506237    0.178308    3.270243
H       3.073070   -0.795215    2.242205
H       2.744181   -0.353008    3.780546
