15

C       0.049118   -1.192108   -0.035933
C       0.027740    0.012458   -0.023355
C      -0.017337    1.428689    0.024772
C       0.230325    2.336060   -1.166905
C       1.150560    2.441632    0.009064
C       0.499794    3.172960    1.215973
N      -0.861873    3.624647    0.825681
C      -0.622837    2.221588    1.234646
H       0.070688   -2.253047   -0.056693
H       0.647647    1.819926   -2.024578
H      -0.473449    3.128545   -1.385567
H       2.204016    2.201912   -0.040179
H       1.038061    3.637588    2.030798
H      -1.261707    4.106436    1.630179
H      -1.151292    1.761380    2.058560
