18

N      -0.183400    1.301770   -0.111304
C       0.049416   -0.044230   -0.101897
O       1.105789   -0.578887   -0.331353
O      -1.113041   -0.702740    0.184643
C      -1.027412   -2.099448    0.143214
C      -1.188531   -2.855795   -1.133904
C      -2.187129   -3.064377   -0.011771
C      -1.570315   -3.976616    1.059221
C      -0.396790   -2.951499    1.240034
H       0.629080    1.893487   -0.093197
H      -1.033152    1.650482    0.298192
H      -1.558732   -2.257529   -1.959968
H      -0.486779   -3.637915   -1.415044
H      -3.241987   -2.861451   -0.147730
H      -2.183910   -4.071100    1.957350
H      -1.289883   -4.977515    0.716840
H       0.622714   -3.295463    1.051066
H      -0.435414   -2.460759    2.215192
