20

C       0.213205    1.674511   -0.038880
C       0.141673    0.149273    0.045009
C       0.820117   -0.548736   -1.144636
O       0.828190   -0.155585   -2.281359
C       1.474429   -1.832669   -0.614995
N       1.530079   -1.735619    0.845551
C       2.257272   -0.536648    1.295845
C       0.770089   -0.517551    1.260285
C      -0.037537   -0.619478    2.529786
H       1.242018    2.027365    0.081109
H      -0.144774    2.006480   -1.017232
H      -0.399172    2.144675    0.735669
H      -0.916444   -0.154635   -0.002907
H       0.852791   -2.690708   -0.902167
H       2.463619   -1.982274   -1.057806
H       2.774804   -0.645937    2.244554
H       2.806605    0.040200    0.551990
H      -0.233569    0.373048    2.950746
H      -1.003488   -1.101501    2.340889
H       0.494845   -1.211504    3.278440
