13

C      -0.031860    1.447908   -0.024043
N      -0.001991   -0.011315   -0.013786
N      -0.028584   -0.624587   -1.199139
C      -0.001476   -1.912159   -1.169260
F      -0.026650   -2.557936   -2.325974
C       0.053588   -2.650909    0.048643
N       0.079539   -2.060454    1.199729
C       0.052696   -0.663713    1.239558
O       0.073189   -0.009025    2.257064
H       0.861379    1.838387    0.469410
H      -0.073749    1.769826   -1.062851
H      -0.904509    1.802541    0.529605
H       0.074253   -3.739731    0.012001
