17

O      -0.065826   -0.103125    0.015847
C      -0.005123    1.109918   -0.012669
C      -1.290522    1.958447    0.090421
N      -1.717670    2.906151   -0.927559
C      -1.086070    3.149020   -1.985786
O       0.086574    2.568926   -2.408323
C       1.279672    3.215421   -1.963780
C       1.413904    3.118264   -0.436999
N       1.208341    1.764388    0.035664
H      -2.095064    1.226784    0.204233
H      -1.249907    2.515434    1.036828
H      -1.496008    3.867168   -2.699547
H       2.094119    2.680185   -2.459615
H       1.302888    4.265629   -2.288494
H       2.407950    3.461133   -0.132850
H       0.690914    3.783517    0.044775
H       1.981862    1.122236   -0.080400
