21

C      -0.227224    1.499722    0.019589
C      -0.104698   -0.004089    0.132561
C       1.161600   -0.718234   -0.264580
C       0.744852   -0.684529    1.190230
C       1.523082    0.049330    2.213753
C       2.569197    1.179085    2.078797
C       3.251441    0.648602    3.387415
C       2.163618   -0.428274    3.457154
O       0.900374    0.246255    3.500127
H       0.733100    2.000194    0.169561
H      -0.591979    1.782570   -0.974146
H      -0.929088    1.898681    0.759769
H      -1.026413   -0.534415   -0.093607
H       1.100532   -1.662588   -0.794090
H       2.005354   -0.101028   -0.556845
H       0.327023   -1.605502    1.587451
H       3.214947    1.079795    1.203619
H       2.157575    2.189863    2.118265
H       4.249392    0.243573    3.203034
H       3.285067    1.331152    4.239933
H       2.207868   -1.419644    3.895784
