21

C      -0.200498    1.454598    0.117172
C       0.076520   -0.032107    0.065122
C       1.451149   -0.554254   -0.300238
O       2.508243    0.349560   -0.471786
C       0.944630   -0.727949    1.106940
C       1.586662    0.017903    2.234787
C       0.840430    0.232344    3.542969
C       2.005930   -0.721060    3.475988
O       1.765960   -2.099788    3.507761
H       0.699496    2.021834    0.364794
H      -0.568418    1.817774   -0.849697
H      -0.962115    1.690449    0.867782
H      -0.755521   -0.626497   -0.305782
H       1.516926   -1.441214   -0.930326
H       2.379213    0.803412   -1.311087
H       0.644488   -1.735498    1.373355
H       2.254223    0.814397    1.928149
H       0.953697    1.174114    4.069689
H      -0.144097   -0.218534    3.620014
H       2.941508   -0.416862    3.945189
H       1.462746   -2.326232    4.392683
