18

C      -0.060618    1.527115   -0.000164
C       0.063886    0.014807    0.049387
O       0.919604   -0.496524   -0.998512
C       1.876474   -1.273934   -0.251646
C       2.272213   -0.339234    0.917594
C       0.784812   -0.593067    1.280328
O       0.322709   -0.264955    2.549198
C       1.003839   -2.056702    0.756687
H       0.909229    2.018417    0.109635
H      -0.492949    1.838630   -0.955466
H      -0.716187    1.875386    0.804849
H      -0.937229   -0.431959   -0.058937
H       2.590259   -1.736290   -0.929010
H       2.950059   -0.806587    1.633408
H       2.595320    0.673451    0.673072
H      -0.607137   -0.511570    2.610218
H       0.146476   -2.603943    0.356045
H       1.578362   -2.666721    1.455316
