21

C      -0.040855    1.570306    0.217436
C      -0.040229    0.045752    0.015060
C       0.826675   -0.653430    1.071853
C      -1.441749   -0.493376    0.003974
C      -2.665108   -0.152925   -0.913184
C      -3.616301   -0.468903    0.230783
C      -3.195680   -1.567079   -0.735111
C      -1.982335   -1.909140    0.178514
C      -2.405064   -0.808682    1.147999
H       0.975174    1.974195    0.157091
H      -0.647905    2.072796   -0.542335
H      -0.451988    1.830634    1.199033
H       0.402012   -0.160503   -0.971746
H       0.436221   -0.475992    2.080407
H       0.865556   -1.734895    0.908941
H       1.852333   -0.272561    1.042481
H      -2.787346    0.530043   -1.743909
H      -4.600983   -0.071064    0.436930
H      -3.798603   -2.165306   -1.405153
H      -1.453883   -2.832030    0.379002
H      -2.256659   -0.745071    2.218032
