14

C      -0.039621    1.484107   -0.134528
N      -0.071908    0.047929    0.070529
C      -1.215133   -0.668130    0.068825
C      -1.322699   -2.061605    0.022785
N      -0.253177   -2.964978   -0.074131
N      -2.656846   -2.331366    0.087160
N      -3.396327   -1.354402    0.156350
O      -2.377301   -0.093795    0.145016
H       0.932805    1.866250    0.183395
H      -0.205248    1.768462   -1.182427
H      -0.815009    1.954400    0.473320
H       0.752481   -0.497517   -0.131554
H      -0.155310   -3.556700    0.744412
H      -0.315939   -3.565184   -0.889422
