20

C      -0.008890    1.437307   -0.193879
O      -0.041103    0.034137   -0.075960
C       0.723618   -0.445824    1.000528
C       0.592766   -1.957648    1.083876
C       0.863660   -2.663325   -0.230644
C       1.232394   -2.568678    2.355365
C      -0.196020   -2.885295    2.739114
N      -0.740135   -3.444663    3.721345
O      -0.744098   -2.332070    1.604597
H       1.013936    1.809035   -0.364736
H      -0.630998    1.706099   -1.050473
H      -0.408287    1.930386    0.705820
H       1.791249   -0.190001    0.871736
H       0.389058    0.000517    1.951440
H       1.888428   -2.465011   -0.562134
H       0.737101   -3.743188   -0.117492
H       0.178363   -2.300825   -0.998875
H       1.870511   -3.438406    2.190818
H       1.738262   -1.866607    3.022064
H      -1.755948   -3.467594    3.613383
