19

C       0.004721    1.557872    0.131001
O       1.451263    1.463864   -0.218345
C       1.109578    0.185630   -0.774883
C      -0.153809    0.004557    0.011431
C      -0.243413   -0.970360   -1.209721
C       0.365815    0.085078   -2.155990
C       1.277587   -0.585984   -3.183081
C       1.954047   -1.672940   -2.296994
C       1.318127   -1.351537   -0.949843
H      -0.118466    1.949602    1.142805
H      -0.522455    2.187852   -0.589938
H      -0.040342   -0.478457    0.983819
H      -1.014413   -1.704039   -1.455945
H      -0.254997    0.918128   -2.483541
H       0.714662   -1.018467   -4.016495
H       1.998400    0.119988   -3.607159
H       1.719384   -2.690427   -2.625237
H       3.043865   -1.582028   -2.267673
H       1.560714   -1.953257   -0.073286
