23

C      -0.080811    1.508407    0.013579
C       0.023111   -0.014143   -0.004924
C       0.825677   -0.577530   -1.209918
C       1.421339   -1.930784   -0.718465
C       0.909294   -2.080919    0.735526
C       0.787485   -0.617632    1.193332
C      -0.494357   -2.703989    0.747376
O      -1.361346   -2.049406   -0.166970
C      -1.387722   -0.641212    0.002709
H       0.912846    1.965571    0.071584
H      -0.569697    1.886888   -0.891561
H      -0.659916    1.861321    0.874822
H       0.188815   -0.703715   -2.090044
H       1.621478    0.122857   -1.484483
H       1.111357   -2.770498   -1.346304
H       2.515098   -1.901371   -0.731881
H       1.575058   -2.681596    1.363165
H       1.773514   -0.149932    1.303996
H       0.252612   -0.502094    2.142946
H      -0.466502   -3.751464    0.429978
H      -0.911981   -2.669058    1.768719
H      -1.901098   -0.375774    0.943893
H      -1.988451   -0.254577   -0.827800
