16

C       0.074758    1.514551   -0.065740
C       0.036345    0.059929   -0.036194
C      -0.010075   -1.143881   -0.010382
C      -0.014814   -2.598439    0.010044
O       0.736914   -3.147313   -1.055877
C       0.227989   -3.245778    1.411134
O      -1.130052   -3.714911    1.476673
C      -1.400238   -3.286490    0.130453
H       0.919700    1.903917    0.512498
H       0.170599    1.887787   -1.091089
H      -0.841804    1.939487    0.357630
H       1.480313   -2.559610   -1.226266
H       0.955051   -4.066132    1.361808
H       0.473187   -2.565974    2.233605
H      -2.278265   -2.636894    0.065289
H      -1.494449   -4.126106   -0.568844
