16

C      -0.007524    1.418432    0.025686
N       0.047544   -0.027783    0.012733
C      -1.072417   -0.661543    0.017386
N      -2.336927   -0.079069    0.033252
N      -3.542356   -0.718345    0.038348
C      -3.505239   -2.008273    0.027502
O      -4.666390   -2.700517    0.032072
C      -2.287471   -2.777276    0.010774
C      -1.115219   -2.114160    0.005976
H       1.007926    1.822537    0.021084
H      -0.528593    1.836325   -0.854526
H      -0.514664    1.821185    0.920939
H      -2.422375    0.922744    0.041612
H      -5.382847   -2.051125    0.043239
H      -2.351412   -3.858571    0.002504
H      -0.155409   -2.615446   -0.006442
