23

C      -0.003531    1.575534    0.211029
C      -0.002830    0.067411   -0.046993
C      -1.406581   -0.545254   -0.052403
C      -1.369345   -2.039209   -0.407915
C      -2.700306   -2.734944   -0.567256
C      -3.789891   -2.613075    0.192436
C      -3.969587   -1.738441    1.409091
C      -3.368947   -0.333845    1.318206
O      -1.958392   -0.311908    1.237774
H       1.016151    1.971823    0.235493
H      -0.550169    2.111026   -0.573731
H      -0.483294    1.799084    1.166761
H       0.475077   -0.150298   -1.009581
H       0.590627   -0.442555    0.722304
H      -2.024511   -0.021647   -0.802639
H      -0.802829   -2.147606   -1.340190
H      -0.778143   -2.551980    0.365732
H      -2.746959   -3.449287   -1.387041
H      -4.644948   -3.236405   -0.061690
H      -5.040350   -1.627858    1.620563
H      -3.538586   -2.238229    2.289163
H      -3.807095    0.202620    0.461419
H      -3.623367    0.222298    2.227698
