14

C      -0.024481    1.523402    0.097585
C       0.017413    0.038034   -0.013918
C       0.052535   -0.775980   -1.125650
O       0.054044   -0.292309   -2.407394
C       0.084804   -2.133124   -0.699422
C       0.068468   -2.114857    0.677922
N       0.028047   -0.809205    1.079711
H       0.843875    1.930601    0.632238
H      -0.026691    1.956631   -0.905174
H      -0.924105    1.881885    0.615130
H       0.081321   -1.038106   -3.012065
H       0.116082   -3.011535   -1.327211
H       0.082316   -2.921614    1.392496
H       0.008515   -0.499605    2.035091
