17

C       0.081655    1.332391    0.098349
O      -0.024347   -0.075500   -0.032808
C       0.637792   -0.586191   -1.127277
O       2.064869   -0.400126   -1.025378
C       2.672878   -1.603155   -1.420656
C       2.286038   -2.870912   -0.678072
O       1.066397   -2.650016    0.024857
C       0.483726   -2.104723   -1.196876
C       1.693977   -2.566055   -2.036488
H       1.116650    1.636437    0.289161
H      -0.279882    1.845086   -0.805985
H      -0.544667    1.618587    0.945414
H       0.293398   -0.093030   -2.056994
H       3.676148   -1.484920   -1.811854
H       2.957001   -3.642638   -0.318141
H      -0.521446   -2.478789   -1.388114
H       1.720976   -3.048334   -3.003656
