21

C       0.024822    1.482093    0.193786
C      -0.050086   -0.027292   -0.098052
C      -1.451773   -0.567053   -0.064628
C      -2.139869   -1.086551   -1.093108
C      -3.547769   -1.494489   -0.714165
C      -3.608863   -1.236466    0.792054
C      -2.648316   -2.014818    1.647652
O      -2.004133   -3.167721    1.205272
C      -2.260244   -0.616835    1.194036
H       1.061032    1.831587    0.157743
H      -0.552933    2.050703   -0.541419
H      -0.371485    1.719562    1.185941
H       0.391624   -0.229024   -1.080249
H       0.564110   -0.560257    0.640298
H      -1.745796   -1.213501   -2.096397
H      -4.296618   -0.905512   -1.258839
H      -3.749612   -2.548526   -0.949706
H      -4.539558   -0.895554    1.231153
H      -2.906640   -2.119031    2.696644
H      -1.557527   -2.949473    0.376064
H      -2.165989    0.170572    1.934294
