19

C       0.143003    1.647148    0.030961
C       0.105576    0.118880   -0.020226
C       0.754246   -0.554850   -1.217258
C       2.273278   -0.545735   -1.287231
C       1.569377   -1.751661   -0.750086
O       1.689062   -2.917459   -1.503964
C       1.444593   -1.858383    0.759150
C       0.798542   -0.536109    1.193415
O       0.832143   -0.071148    2.302813
H       1.162684    2.017073   -0.114931
H      -0.488675    2.081858   -0.748865
H      -0.207145    1.998731    1.004770
H      -0.945188   -0.207843    0.037376
H       0.215102   -0.607022   -2.156423
H       2.708791   -0.658307   -2.273056
H       2.839918    0.089120   -0.611432
H       0.880656   -3.431532   -1.395774
H       0.762579   -2.678129    1.028782
H       2.383574   -2.029704    1.292509
