19

C      -0.051606    1.335724    0.050156
O       0.030826   -0.090599   -0.023241
C       0.679189   -0.573690   -1.109786
O       1.160234    0.136578   -1.962297
C       0.709819   -2.049980   -1.096543
C       1.246989   -2.772361   -2.086199
C       1.105855   -4.251344   -1.851045
C       0.659093   -4.334710   -0.366666
C       0.108845   -2.926868   -0.017294
H       0.946870    1.779761    0.081662
H      -0.582859    1.737737   -0.816601
H      -0.596747    1.556035    0.968262
H       1.698309   -2.338624   -2.970836
H       0.352864   -4.669867   -2.534749
H       2.031663   -4.802718   -2.049743
H      -0.069776   -5.128901   -0.189258
H       1.529650   -4.550811    0.260285
H       0.383038   -2.602945    0.990614
H      -0.987571   -2.889605   -0.061882
