19

C      -0.292766   -1.737251   -0.460734
N      -0.456159   -0.653550    0.508394
C       0.637035   -0.406644    1.436533
C       1.822017    0.446056    0.911032
C       2.598402   -0.204888   -0.139062
N       3.223653   -0.724186   -0.961338
C       0.032043    0.291368    2.678540
C      -0.935048   -0.534232    3.497422
O       0.317826    1.434170    2.951169
H      -0.118666   -2.674981    0.077331
H      -1.226136   -1.847840   -1.020615
H       0.528282   -1.598865   -1.175667
H      -0.729805    0.207437    0.048149
H       1.015389   -1.386089    1.755589
H       1.442623    1.406029    0.546333
H       2.492586    0.688490    1.741877
H      -0.378974   -1.310688    4.037442
H      -1.448444    0.101520    4.219371
H      -1.648235   -1.038139    2.841790
