22

C       0.018391    1.564677   -0.035417
C       0.008159    0.037333    0.050181
O       0.652843   -0.410258    1.243508
C      -1.405146   -0.542222   -0.092793
C      -1.462358   -2.065691   -0.125662
C      -1.225103   -2.901776    1.191888
C      -2.606049   -3.531066    0.995461
N      -3.571874   -2.402824    1.028691
C      -2.848325   -2.722994   -0.229146
H       1.034998    1.944670    0.097714
H      -0.360687    1.912485   -1.001968
H      -0.615820    2.001073    0.746593
H       0.637033   -0.364988   -0.755217
H       0.139267   -0.079181    1.988957
H      -2.038722   -0.175479    0.725289
H      -1.844730   -0.150517   -1.020935
H      -0.809903   -2.447697   -0.918455
H      -0.395607   -3.604055    1.094146
H      -1.107161   -2.331228    2.114261
H      -2.927145   -4.536402    1.239575
H      -4.504492   -2.805882    0.938933
H      -3.399612   -2.963033   -1.131217
