21

O       0.011166    1.382782   -0.018744
C       0.005560   -0.031713    0.118257
C      -1.424456   -0.512731   -0.096963
C      -1.543244   -2.028257   -0.023429
O      -1.091550   -2.538634    1.262665
C      -2.221701   -3.319977    1.687893
C      -2.630064   -4.088707    0.406958
C      -2.959458   -2.631651   -0.054068
C      -3.426990   -2.388840    1.417997
H       0.894722    1.698725    0.190630
H       0.672653   -0.505266   -0.621650
H       0.346098   -0.343928    1.115266
H      -2.070050   -0.034865    0.646495
H      -1.763713   -0.177867   -1.085414
H      -0.917317   -2.474380   -0.810508
H      -2.004418   -3.787036    2.647240
H      -1.843626   -4.633768   -0.121112
H      -3.520252   -4.706932    0.533795
H      -3.581701   -2.409704   -0.920308
H      -4.389789   -2.857468    1.627730
H      -3.388029   -1.379809    1.832000
