22

C      -0.009484    1.575699    0.194999
C      -0.021915    0.070742   -0.087368
C      -1.427525   -0.555865   -0.082998
C      -2.177034   -0.245953   -1.384150
O      -3.578692   -0.464402   -1.190715
C      -1.347839   -2.068638    0.234894
O      -0.338991   -2.581356    0.693854
N      -2.490843   -2.764598   -0.008520
C      -2.614108   -4.179732    0.273990
H       1.014168    1.962674    0.185161
H      -0.579838    2.148827   -0.544446
H      -0.436568    1.793828    1.180258
H       0.461424   -0.133960   -1.052144
H       0.573605   -0.459037    0.658777
H      -2.013137   -0.101666    0.729827
H      -2.001895    0.801152   -1.664192
H      -1.790849   -0.879751   -2.196252
H      -4.024276   -0.340145   -2.034184
H      -3.277662   -2.249797   -0.379657
H      -3.392631   -4.371949    1.021680
H      -2.857352   -4.748611   -0.631095
H      -1.655573   -4.523992    0.663572
