23

O       0.113060    1.291716   -0.268830
C       0.017203   -0.123545   -0.202459
C      -1.428983   -0.494556    0.108634
C      -2.405448   -0.111991   -1.040098
C      -2.763580   -1.440117   -1.725238
C      -2.807060   -2.439716   -0.558238
C      -2.796936   -3.903267   -0.966989
O      -3.975252   -4.164827   -1.717583
C      -1.592997   -2.029769    0.300639
H       1.011195    1.522049   -0.523040
H       0.317377   -0.587489   -1.157826
H       0.679900   -0.530105    0.579330
H      -1.701157    0.039016    1.024740
H      -3.310413    0.342900   -0.622933
H      -1.964502    0.626299   -1.714528
H      -3.697150   -1.404314   -2.290626
H      -1.970866   -1.737202   -2.426333
H      -3.728066   -2.261920    0.013534
H      -1.891572   -4.107866   -1.564249
H      -2.748058   -4.543075   -0.070470
H      -3.965734   -5.089353   -1.981231
H      -0.696667   -2.549662   -0.067756
H      -1.705655   -2.311041    1.351512
