22

C      -0.134911    1.640090   -0.019377
C       0.055102    0.118078    0.040677
C       0.743507   -0.469812   -1.199567
C       2.136971    0.111460   -1.443827
C       0.681127   -2.043317   -1.358772
C       0.089575   -2.913028   -0.259277
N      -0.190655   -1.811454   -2.519585
C      -0.145364   -0.442322   -2.474486
O      -0.616365    0.416722   -3.176145
H       0.820419    2.171839    0.016091
H      -0.647473    1.928448   -0.941239
H      -0.732817    1.982684    0.830555
H       0.636424   -0.151000    0.933170
H      -0.928078   -0.349788    0.160517
H       2.777924   -0.025494   -0.565207
H       2.622966   -0.372695   -2.296928
H       2.081579    1.180786   -1.662310
H       1.659381   -2.445419   -1.652496
H      -0.907348   -2.576341    0.034787
H       0.006910   -3.951299   -0.598870
H       0.735320   -2.907378    0.624964
H      -0.558377   -2.439456   -3.220136
