13

N       0.017797   -1.161852   -0.002919
C       0.002124   -0.004202    0.003195
C      -0.017291    1.426328    0.010695
C      -1.240563    2.110400    0.030666
C      -1.253400    3.499663    0.037875
C      -0.055090    4.211585    0.025308
C       1.162097    3.532614    0.005441
C       1.186965    2.143515   -0.001930
H      -2.166454    1.547479    0.040312
H      -2.200618    4.027361    0.053332
H      -0.069809    5.296168    0.031002
H       2.094644    4.085954   -0.004341
H       2.127789    1.606058   -0.017351
