23

C       0.056445    1.531572    0.075059
C       0.012412    0.014752   -0.030778
C       0.758485   -0.513498   -1.255177
O       0.820458   -1.929813   -1.238086
C       1.482732   -2.386961   -0.071745
C       0.752778   -1.935526    1.203781
C      -0.614763   -2.625298    1.326716
C       1.613540   -2.203117    2.435877
O       0.604914   -0.504530    1.157437
H       1.091553    1.883021    0.127934
H      -0.428015    1.995064   -0.790102
H      -0.461112    1.860577    0.979827
H      -1.035699   -0.316544   -0.099613
H       0.244082   -0.230897   -2.178747
H       1.777053   -0.088717   -1.273623
H       1.514779   -3.478819   -0.137177
H       2.516850   -2.005070   -0.050723
H      -0.485650   -3.686886    1.560631
H      -1.195288   -2.163775    2.130609
H      -1.182213   -2.558868    0.395694
H       2.558683   -1.657433    2.366572
H       1.093545   -1.869328    3.338305
H       1.829506   -3.271337    2.536821
