23

C      -1.331088   -0.085870   -0.167921
C       0.194992   -0.002765    0.020809
C       0.585365   -0.553988    1.400102
C       0.914143   -0.666486   -1.162820
C       2.152148   -1.551274   -0.964009
C       0.848071   -2.173964   -1.333218
C       0.991459    0.091951   -2.469460
C       0.797756    1.600152   -2.459233
O       1.261596   -0.478309   -3.507134
H      -1.647634    0.312555   -1.137085
H      -1.670402   -1.126091   -0.117782
H      -1.854309    0.476169    0.612544
H       0.473398    1.057875    0.024670
H       0.390454   -1.628765    1.485305
H       1.640727   -0.380385    1.627059
H      -0.004101   -0.057004    2.177039
H       2.912901   -1.486981   -1.733135
H       2.524643   -1.679655    0.044497
H       0.314971   -2.732423   -0.571869
H       0.730366   -2.531354   -2.348786
H       1.518453    2.076944   -1.785375
H       0.943825    1.975340   -3.472496
H      -0.200598    1.877997   -2.107942
