23

C       0.063865    1.616522    0.003148
C       0.042986    0.086588    0.008579
C       0.715041   -0.525272    1.238160
C       0.617581   -2.055050    1.273404
O       1.298176   -2.639059    0.180046
O       2.104003   -0.167221    1.199539
C       2.735102    0.001603    2.460819
C       4.157242    0.462467    2.177963
O       4.177140    1.662375    1.432710
H       1.086824    1.996410    0.071412
H      -0.383770    2.012924   -0.912920
H      -0.497782    2.024862    0.851023
H      -0.992114   -0.274218   -0.024608
H       0.537014   -0.312011   -0.883537
H       0.258765   -0.111776    2.151445
H       1.012650   -2.427183    2.233211
H      -0.430141   -2.367954    1.209638
H       2.156227   -2.197823    0.145426
H       2.200502    0.765509    3.044730
H       2.744775   -0.934176    3.040351
H       4.674258    0.658067    3.123047
H       4.700185   -0.344349    1.659065
H       3.610746    1.505689    0.668422
