20

C      -0.147416    1.412182   -0.255408
C      -0.058422   -0.095763    0.011789
C       0.891818   -0.417756    1.174942
C      -1.434562   -0.669915    0.301522
O      -2.392145   -0.437415   -0.807213
C      -2.500646   -1.780663   -1.053235
N      -3.049196   -2.427106   -1.978061
C      -1.650232   -2.200768    0.127371
O      -0.518570   -2.978443   -0.168321
H       0.836000    1.813920   -0.518284
H      -0.837116    1.627367   -1.075604
H      -0.499930    1.949399    0.633251
H       0.318877   -0.595597   -0.888088
H       1.887985   -0.011082    0.975700
H       0.535228    0.028978    2.110883
H       0.987951   -1.496524    1.319871
H      -1.856397   -0.256033    1.223267
H      -3.494650   -1.813814   -2.662505
H      -2.233672   -2.644347    0.944356
H      -0.736670   -3.514538   -0.939691
