16

C       0.253729    1.437241    0.100370
C      -0.173221   -0.006941    0.006371
O      -0.646114   -0.629821    0.936867
C       0.026064   -0.678191   -1.305564
N      -0.720642   -1.955329   -1.581817
C       0.717675   -2.027320   -1.549388
C       1.213553   -1.591324   -2.936392
C       0.581968   -0.204022   -2.629369
O       0.690684    0.878707   -3.127901
H       1.340970    1.510263   -0.022771
H      -0.185281    2.017060   -0.717321
H      -0.033459    1.846200    1.069251
H      -1.075782   -2.216419   -0.656562
H       1.260223   -2.582903   -0.794988
H       2.298714   -1.505873   -3.035364
H       0.797536   -2.153300   -3.774680
