16

C      -0.118804    1.322652    0.449208
N      -0.098224   -0.116418    0.242460
C      -1.104036   -0.679675   -0.291551
C      -1.055895   -2.158078   -0.505939
N      -1.933315   -2.992841   -0.098189
C      -3.125648   -2.637864    0.486831
C      -3.863359   -1.525918    0.232746
C      -3.425360   -0.425074   -0.591022
N      -2.219955   -0.044894   -0.840789
H       0.889768    1.713988    0.284502
H      -0.830612    1.850900   -0.195860
H      -0.377226    1.537953    1.493711
H      -0.193745   -2.546852   -1.049440
H      -3.550851   -3.420120    1.111002
H      -4.888412   -1.497368    0.591126
H      -4.214270    0.169118   -1.059105
