11

F       0.427022    0.200015    0.026073
C      -0.018901    1.450206   -0.035480
F       0.989358    2.252272   -0.399586
F      -0.960154    1.515968   -0.983963
C      -0.592695    1.926592    1.285638
O      -1.340420    0.986899    2.030259
C      -0.109604    1.449441    2.595407
C       0.961150    0.490038    2.758252
N       1.829659   -0.242932    2.963223
H      -1.008238    2.931695    1.223301
H      -0.222840    2.122929    3.443196
