20

C      -0.160546    1.532490    0.138034
C      -0.058573    0.017250   -0.011963
O       0.447498   -0.372013   -1.287931
C       0.804208   -0.594853    1.089199
O       0.289914   -0.321664    2.412332
C       0.293551   -1.723780    2.757289
C       0.771393   -2.128173    1.343709
C      -0.165819   -2.998458    0.516017
H       0.830474    1.997776    0.054940
H      -0.803129    1.951845   -0.640807
H      -0.569337    1.789589    1.118842
H      -1.063230   -0.415253    0.037483
H       1.286099    0.084580   -1.420068
H       1.828788   -0.199288    0.982057
H       0.988779   -1.939286    3.578309
H      -0.707340   -2.076056    3.038500
H       1.773683   -2.563927    1.341256
H      -1.203241   -2.655008    0.582548
H       0.122240   -2.989933   -0.538381
H      -0.140197   -4.033013    0.874625
