17

O       0.029891   -0.020971    0.163427
C      -0.048512    1.171100    0.133143
C      -1.300141    2.042609    0.072867
C      -0.789195    3.426675    0.477160
C       0.689545    3.367197    0.054200
C       1.631804    4.190457    0.937002
C       3.009162    4.213201    0.462590
C       4.138766    4.237320    0.055263
O       1.052073    1.976285    0.142562
H      -1.673363    2.024862   -0.957605
H      -2.080863    1.629619    0.712325
H      -1.317802    4.255364    0.002100
H      -0.858565    3.559040    1.562503
H       0.810129    3.675175   -0.991792
H       1.238539    5.214614    0.984673
H       1.587194    3.787528    1.956443
H       5.140414    4.249721   -0.296953
