13

O       0.067190    1.400547    0.152881
C       0.024224    0.031489    0.058114
C      -0.244731   -0.754626   -1.161073
C      -1.199821   -0.965072    0.029337
C      -0.509239   -1.757692    1.087562
O      -0.843465   -2.669568    1.791288
C       0.729226   -0.819251    1.114462
H      -0.187551    1.787119   -0.690885
H      -0.722468   -0.211870   -1.974278
H       0.416815   -1.549965   -1.497711
H      -2.266783   -0.820666   -0.089565
H       1.710716   -1.231557    0.861790
H       0.782359   -0.313201    2.082752
