19

O      -0.095383    1.498443   -0.362137
C      -0.077483    0.122285   -0.032672
C      -1.487009   -0.445678    0.057818
O      -2.090238   -0.206016   -1.207223
C      -3.449669   -0.632640   -1.332584
C      -4.386100    0.370909   -0.624429
O      -4.143671    1.689947   -1.046280
C      -3.748193   -0.748886   -2.757403
C      -4.029924   -0.860791   -3.919138
H      -0.492600    1.557164   -1.238021
H       0.501517   -0.459031   -0.765769
H       0.417251    0.030415    0.939378
H      -1.461701   -1.524441    0.278122
H      -2.037165    0.060532    0.863203
H      -3.569576   -1.620686   -0.858675
H      -5.424680    0.128827   -0.867563
H      -4.265036    0.260422    0.465260
H      -3.188115    1.817867   -1.004565
H      -4.273697   -0.953431   -4.948739
