15

N      -0.247169    1.022957    0.657434
C      -0.122434   -0.121950    0.145889
C      -1.151320   -0.821140   -0.718030
C      -0.689266   -2.294019   -0.735507
C       0.824482   -2.138201   -0.459284
O       0.973325   -0.929962    0.293901
C      -1.359103   -3.094600    0.363431
O      -2.003931   -4.093247    0.179654
H       0.591906    1.280171    1.179836
H      -2.158308   -0.666380   -0.326730
H      -1.125453   -0.399343   -1.727750
H      -0.882636   -2.797338   -1.683992
H       1.250807   -2.955167    0.129768
H       1.385105   -2.056700   -1.397963
H      -1.208749   -2.685262    1.389799
