11

O       0.016613    0.013992    0.407588
C       0.038597    1.155490    0.055814
O      -1.160186    1.749887   -0.340681
N      -1.291929    3.051472   -0.769457
C      -0.220119    3.770934   -0.804743
C       1.082223    3.309868   -0.431573
C       1.220129    2.030319   -0.008577
C       2.475127    1.480721    0.383819
N       3.506116    1.059409    0.696771
H      -0.376930    4.787437   -1.149109
H       1.931945    3.980261   -0.490721
