21

C      -0.059183    1.600834    0.092026
C       0.006947    0.068524    0.005443
C       0.776830   -0.444807   -1.198197
C       1.774807   -1.275238   -0.878845
C       2.739080   -1.947629   -1.804346
C       1.839313   -1.427838    0.622099
C       2.407279   -2.652462    1.282409
O       2.136295   -0.160996    1.274038
C       0.769077   -0.575386    1.163644
H       0.948552    2.012481    0.190554
H      -0.521795    2.025638   -0.804482
H      -0.649153    1.920700    0.957079
H      -1.019189   -0.327863   -0.005230
H       0.552439   -0.108375   -2.206082
H       2.520536   -1.706132   -2.847939
H       3.771845   -1.641896   -1.594059
H       2.708294   -3.039093   -1.697316
H       3.470603   -2.768816    1.045856
H       2.309252   -2.578041    2.367980
H       1.888169   -3.555777    0.944108
H       0.270277   -0.777010    2.109365
