21

C       0.714296    1.444368    0.138472
C      -0.094657    0.176610   -0.163393
C       0.513347   -0.649674   -1.337389
C       1.295042   -1.762084   -0.673757
O       2.188402   -1.308862    0.361315
C       0.914742   -1.860081    0.740959
C       0.990826   -3.128880    1.547643
O      -0.262825   -3.790722    1.441619
C      -0.133365   -0.806003    1.042969
H       1.743718    1.191697    0.404523
H       0.737610    2.110319   -0.731374
H       0.270771    2.001929    0.970906
H      -1.114260    0.479409   -0.421690
H      -0.270854   -1.099000   -1.958610
H       1.136676   -0.034323   -1.994876
H       1.649984   -2.616431   -1.245879
H       1.817594   -3.743614    1.162551
H       1.223290   -2.879800    2.595415
H      -0.273219   -4.515607    2.072993
H       0.057936   -0.296701    1.994285
H      -1.102214   -1.308601    1.127796
