14

C      -0.183250    1.424687   -0.081145
O       0.138381    0.048666    0.071318
C       0.696597   -0.543239   -1.067320
C       1.237331   -1.926115   -0.649514
C       2.341139   -1.800904    0.298382
N       3.226790   -1.702252    1.032673
C      -0.300364   -0.699919   -2.153522
N      -1.084419   -0.811677   -2.994417
H       0.707982    2.012631   -0.340480
H      -0.951282    1.574646   -0.850853
H      -0.567917    1.759597    0.882868
H       1.524731    0.064674   -1.464994
H       0.422628   -2.495905   -0.192609
H       1.575980   -2.474673   -1.533588
