24

C       0.132167    1.583945    0.133564
C      -0.033451    0.069844   -0.044019
C       0.747852   -0.523228   -1.231644
C       2.257937   -0.265083   -1.103989
C       0.477669   -2.039826   -1.414840
C      -1.014320   -2.409552   -1.513429
C       1.145168   -2.517362   -2.709849
N       2.000110   -3.574547   -2.581007
O       0.899786   -2.011860   -3.789608
H       1.154465    1.860706    0.406493
H      -0.122538    2.118444   -0.788637
H      -0.528290    1.954272    0.923997
H       0.269561   -0.441521    0.881335
H      -1.099608   -0.141163   -0.173243
H       0.397570   -0.038278   -2.152251
H       2.655537   -0.707341   -0.181369
H       2.808873   -0.691569   -1.947026
H       2.482675    0.804069   -1.080588
H       0.915275   -2.575070   -0.559867
H      -1.545842   -2.200210   -0.582842
H      -1.487752   -1.851723   -2.326242
H      -1.132420   -3.476578   -1.728453
H       2.273295   -3.937430   -1.685390
H       2.475145   -3.906126   -3.405163
