21

C       0.047473    1.246360   -0.495753
O      -0.046454   -0.160951   -0.371917
C      -1.264094   -0.591106    0.188958
O      -2.370940   -0.362901   -0.662104
C      -2.796816   -1.595864   -1.282932
C      -4.317267   -1.690097   -1.126362
C      -2.382229   -1.594348   -2.762421
C      -2.055165   -2.650924   -0.493846
C      -1.208322   -2.086579    0.355722
H       1.039767    1.468211   -0.894818
H      -0.715424    1.641212   -1.177472
H      -0.063387    1.743268    0.480620
H      -1.445160   -0.026177    1.118602
H      -4.797719   -0.837449   -1.615268
H      -4.699095   -2.608232   -1.584334
H      -4.593481   -1.684711   -0.068947
H      -1.300611   -1.465618   -2.845571
H      -2.664961   -2.532885   -3.250863
H      -2.875487   -0.771540   -3.288958
H      -2.212419   -3.710786   -0.652558
H      -0.518296   -2.573276    1.031411
