16

C      -0.032763    1.487168    0.030098
C       0.013942   -0.005181   -0.028852
C       0.041764   -0.828380   -1.118184
C       0.083399   -2.187148   -0.646842
O       0.120117   -3.314437   -1.403172
C       0.080171   -2.167236    0.715094
N       0.037258   -0.823515    1.104259
C       0.021311   -0.399823    2.423316
O       0.042611   -1.142901    3.372255
H       0.837280    1.916498    0.540350
H      -0.043320    1.881225   -0.988625
H      -0.929640    1.861324    0.537311
H       0.033623   -0.505166   -2.149682
H       0.114231   -3.066113   -2.332004
H       0.103175   -2.947536    1.453496
H      -0.013298    0.698800    2.508979
