18

O      -0.063794   -0.111869   -0.211188
C       0.012679    1.082061   -0.080943
C       1.307430    1.869284   -0.073491
C       1.336427    2.911376   -1.173541
C       1.378584    2.508888   -2.678553
C       2.055070    3.857266   -2.905084
C       2.486644    3.955131   -1.492570
N       1.445371    4.893299   -1.993968
C       0.408933    4.144873   -1.213343
H      -0.905287    1.703144    0.040663
H       1.387738    2.372321    0.901513
H       2.140230    1.165593   -0.166783
H       2.078686    1.688464   -2.857530
H       0.425001    2.297331   -3.174722
H       2.537222    4.237327   -3.795629
H       3.403937    4.254124   -1.002314
H      -0.569459    4.049521   -1.699641
H       0.294248    4.633214   -0.241139
