20

C       0.000418    1.555041    0.059815
C       0.018488    0.027715    0.009506
O      -1.315767   -0.493622   -0.037345
C       0.701358   -0.561228   -1.234769
C       2.167139   -0.343218   -1.505907
C       1.715471   -1.604340   -0.811387
C       1.741355   -1.596961    0.704613
N       2.183540   -0.314010    1.304667
C       0.744555   -0.619598    1.203155
H       1.016619    1.951876    0.112538
H      -0.496369    1.960429   -0.826373
H      -0.541234    1.907410    0.947350
H      -1.822826   -0.058740    0.656508
H       0.036917   -0.725136   -2.075250
H       2.481412   -0.430008   -2.540684
H       2.719345    0.376516   -0.915205
H       1.797050   -2.561097   -1.312934
H       1.959801   -2.518438    1.232883
H       2.497309   -0.472703    2.258850
H       0.169216   -0.772404    2.112875
