10

C      -0.014296    1.487452    0.029365
C       0.000458   -0.001279   -0.006352
N      -0.104040   -0.678825   -1.120095
O      -0.044395   -2.016268   -0.699548
C       0.089158   -1.977828    0.624932
N       0.125033   -0.786292    1.126956
H       0.914622    1.863669    0.467905
H      -0.126011    1.889099   -0.978496
H      -0.839511    1.841713    0.653991
H       0.153341   -2.924601    1.141363
