19

O      -0.015533    1.352951   -0.263692
C       0.018751   -0.039905    0.013788
C      -1.408715   -0.537977    0.079779
C      -2.231440   -0.550661   -1.244936
C      -2.705526   -1.959555   -0.870016
C      -4.106042   -2.430577   -0.815148
N      -3.131468   -3.042048   -1.746840
C      -1.626647   -2.075845    0.211544
H       0.889791    1.669948   -0.331296
H       0.562134   -0.590178   -0.772988
H       0.529370   -0.246620    0.969134
H      -1.942889    0.009006    0.861850
H      -2.991020    0.223724   -1.374853
H      -1.577348   -0.551478   -2.124681
H      -4.434852   -3.083663   -0.010388
H      -4.881454   -1.783019   -1.218328
H      -3.283967   -2.688067   -2.688937
H      -0.763310   -2.651641   -0.139805
H      -1.930890   -2.458858    1.188480
