19

C      -0.958281    0.422256    0.494598
C       0.344080    0.379749   -0.268824
O       1.308706    1.048110    0.027024
C       0.430718   -0.552915   -1.478944
C       1.715334   -1.390054   -1.448099
O       1.762950   -2.261075   -2.564132
C       0.625314   -3.107483   -2.601767
C      -0.653816   -2.279458   -2.643938
O      -0.710381   -1.395036   -1.531363
H      -0.882965    1.150742    1.302311
H      -1.783461    0.676869   -0.178440
H      -1.189236   -0.570971    0.892435
H       0.462935    0.085404   -2.380246
H       2.589371   -0.739610   -1.496103
H       1.751196   -1.966018   -0.508782
H       0.718871   -3.728027   -3.497939
H       0.608420   -3.764428   -1.716533
H      -0.691504   -1.704824   -3.583292
H      -1.540723   -2.917215   -2.585173
