19

C      -0.222986    1.525474   -0.099239
C       0.012582    0.030559   -0.001983
C       1.349948   -0.636571   -0.223174
C       2.603500    0.203360   -0.058184
O       2.483175    0.872724    1.198732
C       1.639103    0.128090    2.047544
C       0.909018    1.031720    3.026401
O       0.937193    2.231940    3.037352
C       0.703704   -0.679047    1.145339
H       0.596989    2.105225    0.325610
H      -0.349797    1.818393   -1.147385
H      -1.138407    1.805816    0.432410
H      -0.813378   -0.555580   -0.400068
H       1.413419   -1.522307   -0.845172
H       3.493318   -0.444582   -0.070046
H       2.734292    0.978014   -0.821128
H       2.215226   -0.588560    2.666235
H       0.314692    0.452269    3.772399
H       0.277619   -1.589966    1.549140
