10

O      -0.049255   -0.027708   -0.001165
C      -0.002682    1.180953    0.007936
C       1.240182    1.954929   -0.000163
C       2.524148    1.480848   -0.018323
O       3.393107    2.483563   -0.020276
N       2.695596    3.701964   -0.002966
C       1.432419    3.369511    0.008429
H      -0.929172    1.794541    0.022683
H       2.931034    0.481728   -0.030589
H       0.685089    4.150922    0.022831
