21

C      -0.606497    1.224184    0.011493
C       0.123204   -0.111244   -0.118012
C       1.275218   -0.092524   -1.166160
C       2.353277   -0.947986   -0.548303
C       2.086988   -1.237292    0.724863
C       0.791517   -0.658124    1.166150
C       0.666825    0.009105    2.533811
C      -0.022502   -1.299530    2.256699
O      -1.407699   -1.321279    2.054262
H       0.069607    2.017525    0.349823
H      -1.019310    1.529201   -0.956227
H      -1.437022    1.151935    0.719213
H      -0.608724   -0.863972   -0.432348
H       0.944042   -0.461507   -2.143990
H       1.643226    0.930448   -1.336182
H       3.246671   -1.248906   -1.084059
H       2.724004   -1.808765    1.392118
H       1.534153    0.017412    3.186465
H       0.038306    0.890634    2.600383
H       0.380636   -2.199116    2.724082
H      -1.835888   -1.162996    2.902133
