16

O       0.152149    1.207799   -0.646697
C       0.001510    0.148082    0.287335
C      -1.351311   -0.407752    0.327990
C      -2.469999   -0.854964    0.317715
C      -3.814726   -1.415479    0.307772
C      -3.885266   -2.797754   -0.383211
C      -5.265939   -3.406784   -0.278631
O      -5.900202   -3.840383   -1.204186
H      -0.173038    0.891780   -1.496137
H       0.721581   -0.663226    0.093340
H       0.263290    0.573434    1.262589
H      -4.183202   -1.504405    1.338678
H      -4.497342   -0.720789   -0.198055
H      -3.600519   -2.733486   -1.435845
H      -3.182695   -3.476007    0.119597
H      -5.676407   -3.433221    0.759382
