15

O       0.085176    1.458886    0.164072
C      -0.037605    0.085052   -0.013731
C      -1.321627   -0.653178    0.034750
C      -2.455985   -0.089208   -0.832324
C      -2.145135    1.134755   -1.602079
N      -1.649781   -0.175487   -2.096060
C      -0.473288   -0.659248   -1.274690
C       0.346413   -1.677467   -1.842583
N       1.034618   -2.499460   -2.280687
H       0.943978    1.728406   -0.181932
H       0.753613   -0.490643    0.471417
H      -1.480832   -1.478305    0.716789
H      -3.446997   -0.527310   -0.793270
H      -2.941407    1.501522   -2.243887
H      -1.462183    1.877098   -1.220815
