20

C       0.625652    1.091137   -0.421169
C       0.186137   -0.339086   -0.102976
C      -1.322115   -0.459415    0.117377
O      -2.000846   -0.180515   -1.093826
C      -3.055793    0.763856   -1.010741
C      -1.698750   -1.897968    0.563009
O      -1.031843   -2.313598    1.739815
C      -3.161513   -2.033496    0.712467
N      -4.300280   -2.117557    0.891988
H       1.702464    1.135995   -0.607484
H       0.112745    1.464751   -1.311737
H       0.404227    1.771000    0.409432
H       0.456876   -1.005643   -0.931515
H       0.697933   -0.715044    0.788271
H      -1.639149    0.240659    0.907069
H      -3.452159    0.878254   -2.022298
H      -3.863780    0.423168   -0.352165
H      -2.692968    1.740518   -0.660303
H      -1.373982   -2.583470   -0.226870
H      -1.381394   -1.807849    2.482780
