20

C      -0.161066    1.578706    0.095244
C      -0.177858    0.036084    0.026123
C       0.388902   -0.591648    1.303925
C      -1.617346   -0.412550   -0.213730
O      -2.409608   -0.592790    0.679092
C      -2.009667   -0.627950   -1.678605
O      -3.398248   -0.677994   -1.896627
C      -4.050784   -1.774299   -1.441821
N      -5.301943   -1.846450   -1.570272
H       0.864033    1.937737    0.224756
H      -0.565001    2.036671   -0.813278
H      -0.757980    1.926237    0.943717
H       0.425238   -0.272166   -0.838865
H      -0.249354   -0.348729    2.156925
H       0.440252   -1.681827    1.225305
H       1.397357   -0.216316    1.500781
H      -1.627050    0.192528   -2.293009
H      -1.504803   -1.545219   -2.025662
H      -3.387930   -2.532131   -1.007331
H      -5.637923   -2.732738   -1.199727
