17

C      -0.448027    1.427670    0.024287
C       0.025797   -0.016550   -0.034045
C       1.300737   -0.261493   -0.908100
C       2.065910   -0.562669    0.359008
N       3.271936   -0.724895    0.700423
O       4.123921   -0.659469   -0.407689
C       0.821237   -0.538005    1.239144
C       0.837679    0.297915    2.428490
N       0.831162    0.976890    3.364069
H       0.373210    2.107346    0.274194
H      -0.853185    1.729615   -0.946782
H      -1.229730    1.561815    0.777652
H      -0.805696   -0.680389   -0.278858
H       1.235163   -1.110539   -1.595247
H       1.665775    0.603928   -1.468688
H       4.992852   -0.770006   -0.005670
H       0.507284   -1.548382    1.523121
