16

O       0.118727    1.385012   -0.234946
C       0.058898   -0.005706    0.001257
C      -1.376958   -0.572754    0.027692
C      -1.389296   -2.109492   -0.121886
O      -2.650959   -2.638337   -0.471226
C      -2.091345   -0.155624    1.302500
F      -2.143792    1.185483    1.444750
F      -3.367482   -0.593201    1.341180
F      -1.482494   -0.638302    2.398401
H      -0.329380    1.832553    0.489318
H       0.593305   -0.472895   -0.831083
H       0.582831   -0.287688    0.926955
H      -1.933869   -0.140463   -0.809848
H      -0.716522   -2.376369   -0.942119
H      -0.989776   -2.571431    0.793495
H      -3.268106   -2.437714    0.239075
