15

O       0.036538    1.370213    0.008935
C      -0.019227   -0.033626    0.002750
C      -1.476052   -0.479966    0.011814
O      -2.404294    0.299141    0.022388
C      -1.691814   -1.939943    0.006292
C      -2.910207   -2.580810    0.012435
N      -2.615356   -3.915575    0.003664
C      -1.250502   -4.036196   -0.007341
N      -0.665182   -2.866544   -0.006150
H       0.963470    1.624709    0.001492
H       0.461703   -0.482068   -0.882069
H       0.475126   -0.490310    0.875897
H      -3.916930   -2.200317    0.021994
H      -3.281761   -4.670337    0.005066
H      -0.758796   -4.997485   -0.015799
