12

N       0.001678    1.056799    0.771553
C       0.040789   -0.015225    0.112995
O       1.194782   -0.698850   -0.172848
C       1.080675   -1.659295   -1.199275
O       0.130806   -2.666887   -0.891003
C      -1.123851   -2.230892   -0.590906
O      -2.041573   -2.981441   -0.480849
C      -1.240049   -0.704507   -0.334762
O      -2.291836   -0.142688   -0.440710
H       0.943279    1.362751    1.028910
H       0.816572   -1.175394   -2.148669
H       2.045632   -2.156105   -1.277589
