21

C      -0.020320    1.570293   -0.025081
C       0.034046    0.031484   -0.020882
C       0.687264   -0.497706   -1.310753
C       0.726656   -0.496646    1.208295
C       0.190797   -1.281641    2.211479
N       1.169983   -1.504095    3.125113
C       1.110570   -2.332073    4.309309
N       2.330354   -0.916196    2.777627
C       2.066096   -0.305546    1.624724
H       0.988255    1.997156   -0.052950
H      -0.563800    1.939613   -0.901495
H      -0.516866    1.950243    0.872566
H      -0.999964   -0.337001    0.002936
H       1.725370   -0.157111   -1.391769
H       0.694345   -1.591444   -1.329814
H       0.148981   -0.141434   -2.195687
H      -0.801215   -1.687112    2.340596
H       1.468598   -3.347279    4.105566
H       1.739606   -1.885261    5.080556
H       0.079441   -2.382439    4.665528
H       2.846502    0.259756    1.135398
