21

C       0.034530    1.303397    0.189912
O      -0.072477   -0.081837   -0.040604
C       0.602728   -0.549952   -1.205629
C       2.125298   -0.610557   -0.998845
C       0.027225   -1.901205   -1.514818
C      -0.353923   -2.386828   -2.691837
C      -0.838000   -3.799931   -2.536657
O      -0.706036   -4.089299   -1.148253
C      -0.189340   -2.955270   -0.456267
H       1.059095    1.618136    0.435530
H      -0.305542    1.886632   -0.680426
H      -0.610320    1.536068    1.041013
H       0.388081    0.128354   -2.047514
H       2.611173   -0.997003   -1.899264
H       2.537090    0.381468   -0.792629
H       2.373013   -1.267157   -0.160021
H      -0.335216   -1.867036   -3.642161
H      -1.888749   -3.919167   -2.847943
H      -0.245965   -4.518032   -3.127333
H       0.741405   -3.230669    0.064534
H      -0.901112   -2.617422    0.309855
