19

C       0.117426    1.422991   -0.344251
C       0.014957    0.012544    0.248519
C      -1.369738   -0.577849    0.118988
O      -2.372553    0.016652    0.902626
C      -1.890163   -1.162835   -1.190485
O      -0.925896   -1.493146   -2.166391
C      -0.469019   -2.786872   -1.809224
O      -0.512939   -2.859180   -0.394091
C      -1.615457   -2.064831   -0.018401
H       1.121199    1.834450   -0.204171
H      -0.096709    1.410318   -1.417600
H      -0.583613    2.115404    0.136634
H       0.734644   -0.649827   -0.236489
H       0.267632    0.031377    1.315277
H      -2.567321    0.883631    0.528985
H      -2.883529   -0.924018   -1.557144
H      -1.119303   -3.559479   -2.253164
H       0.564120   -2.909553   -2.143938
H      -2.380791   -2.550537    0.577160
