11

O      -0.006963   -0.016928    0.003489
C      -0.029013    1.174246    0.009301
N      -1.152768    2.023878    0.029852
C      -0.687936    3.312177    0.030323
C       0.660871    3.286545    0.011613
O       1.108409    1.984953   -0.001496
C       1.031231    4.641399    0.013808
N      -0.042763    5.416046    0.032636
O      -1.182442    4.533007    0.043781
H      -2.094026    1.670524    0.041463
H       2.002534    5.112497    0.002998
