23

C      -0.999784    1.122142    0.160792
C      -0.256215   -0.220731    0.102012
C       0.428729   -0.492231   -1.270839
C       1.920814   -0.282153   -1.058566
C       2.369081    1.001638   -0.405555
C       2.185759   -0.242439    0.425721
C       0.874958   -0.458792    1.166791
C       0.750445    0.361884    2.451904
O       0.906242   -1.858287    1.499091
H      -0.350596    1.983864   -0.017128
H      -1.780683    1.144072   -0.606786
H      -1.489262    1.270898    1.128035
H      -1.007053   -0.998323    0.281513
H       0.258395   -1.529817   -1.575668
H       0.015889    0.145954   -2.060724
H       2.608804   -0.778171   -1.734216
H       3.393362    1.312753   -0.582168
H       1.677876    1.830868   -0.311266
H       3.057943   -0.711556    0.866695
H       0.806867    1.436188    2.257624
H      -0.201121    0.164356    2.961346
H       1.560316    0.091870    3.135699
H       0.121598   -2.047814    2.024629
