21

C      -0.242287    1.506840    0.159829
C      -0.356068    0.033077    0.507918
O      -1.077599   -0.617270   -0.528602
C      -1.244474   -1.982510   -0.318223
C      -2.374214   -2.463245    0.563546
C      -2.448219   -2.622311   -0.941597
C      -3.421708   -1.775835   -1.750338
C      -4.778481   -2.314205   -1.747189
C      -5.889280   -2.773573   -1.740224
H       0.314517    2.039167    0.936719
H       0.278301    1.638116   -0.792960
H      -1.234432    1.959124    0.072825
H       0.643293   -0.420829    0.608194
H      -0.872627   -0.105592    1.470088
H      -0.311238   -2.548518   -0.307636
H      -2.229820   -3.342340    1.181744
H      -3.006223   -1.697873    1.002368
H      -2.308358   -3.627551   -1.327395
H      -3.419613   -0.754329   -1.356561
H      -3.063796   -1.697206   -2.785283
H      -6.874109   -3.169675   -1.736362
