18

C       0.042448    1.788086   -0.025517
C       1.503163    1.460607    0.133588
C       1.007463    0.240655    1.071985
C      -0.040738    0.219492   -0.102584
O      -1.276456   -0.231966   -0.634262
C      -1.125573    0.362815   -1.970791
C       0.408735    0.440477   -2.266642
C       0.980431   -0.272586   -1.168161
N       1.813158    0.891528   -1.257039
H      -0.454257    2.121257    0.888941
H      -0.226541    2.420767   -0.867832
H       2.257031    2.168720    0.473188
H       1.646065   -0.636731    1.190136
H       0.669150    0.612324    2.040157
H      -1.544869   -0.346674   -2.694674
H      -1.687110    1.299379   -2.027201
H       0.782832    0.410938   -3.281798
H       1.358838   -1.294717   -1.105181
