20

C       0.067033    1.510857    0.004055
N       0.054402    0.060324    0.042905
C       0.524226   -0.594206   -1.175016
C       1.094070   -1.940288   -0.709136
O       1.223797   -2.925870   -1.391174
C       1.379177   -1.833236    0.757849
C       1.419836   -3.099247    1.574393
C       2.250970   -0.622900    1.121691
C       0.750507   -0.525224    1.170542
H       1.076794    1.937242   -0.142749
H      -0.571692    1.863370   -0.811885
H      -0.335570    1.907202    0.941615
H      -0.280905   -0.749378   -1.900075
H       1.323613   -0.032736   -1.693389
H       2.211826   -3.760602    1.210437
H       1.610235   -2.883202    2.629570
H       0.474254   -3.645573    1.501353
H       2.790458   -0.713426    2.058738
H       2.796079   -0.105733    0.339267
H       0.250943   -0.420793    2.129020
