18

O      -0.006470   -0.000741    0.047251
C      -0.036334    1.200238    0.022740
C      -1.279322    2.102681   -0.020393
C      -0.663994    3.519014    0.051120
C      -0.366667    3.927690    1.499141
O       0.367665    2.910900    2.170387
C       1.532044    2.509301    1.457991
C       1.175143    2.158969    0.004643
N       0.659651    3.394280   -0.614816
H      -1.807643    1.948888   -0.968117
H      -1.963944    1.841221    0.790557
H      -1.268032    4.287295   -0.436712
H       0.193506    4.874432    1.494164
H      -1.289171    4.061459    2.071567
H       2.285067    3.311691    1.452079
H       1.928701    1.638579    1.986415
H       2.034571    1.743618   -0.524361
H       0.523442    3.242379   -1.611520
