20

C      -0.002832    1.609465   -0.161446
C       0.012533    0.084594    0.026040
C       0.568001   -0.636758   -1.212763
C       0.786163   -0.311275    1.249970
O       0.568182   -1.602642    1.822474
C       0.450580   -0.455273    2.668957
C       1.889206    0.021172    3.079369
N       2.868274   -0.910295    2.469585
C       2.246523    0.158820    1.651340
H       1.005390    1.999707   -0.339063
H      -0.615914    1.882520   -1.025801
H      -0.411046    2.117278    0.717996
H      -1.016839   -0.257620    0.191250
H       1.603645   -0.337470   -1.410043
H       0.552382   -1.720819   -1.071293
H      -0.024606   -0.395320   -2.100809
H      -0.473934   -0.316940    3.217382
H       2.134956    0.649980    3.924507
H       3.792519   -0.565526    2.733463
H       2.835683    0.917516    1.153868
