19

O       0.040202    1.429995    0.100205
C       0.006995    0.018713    0.037729
C      -1.407340   -0.487897    0.004371
C      -2.473310    0.331843   -0.085964
C      -3.856021   -0.072648    0.000817
C      -4.353067   -1.120929    0.711660
C      -3.577284   -2.030312    1.522040
C      -2.298449   -2.380825    1.290817
C      -1.583051   -1.989857    0.023188
H       0.956081    1.711958    0.027776
H       0.537344   -0.355254   -0.857851
H       0.521295   -0.434271    0.904309
H      -2.282020    1.393010   -0.212954
H      -4.577653    0.606607   -0.448607
H      -5.434876   -1.210063    0.780589
H      -4.075432   -2.433767    2.401541
H      -1.762187   -2.977096    2.024024
H      -2.180504   -2.295270   -0.846859
H      -0.615417   -2.496197   -0.049862
