23

C       0.108086    1.600328    0.232032
C       0.048367    0.075465    0.113068
C      -1.383884   -0.448437   -0.052009
C      -1.490643   -1.973871   -0.177670
C      -2.901644   -2.567885   -0.012623
C      -2.818479   -3.954549   -0.683867
C      -1.933844   -3.711147   -1.916061
C      -1.018897   -2.543295   -1.526458
O      -0.097148   -2.133916   -2.187792
H       1.137490    1.949323    0.360048
H      -0.295862    2.082742   -0.665139
H      -0.473916    1.958511    1.089253
H       0.648270   -0.260572   -0.737239
H       0.493289   -0.379778    1.008694
H      -1.988227   -0.128667    0.807904
H      -1.843882    0.014904   -0.935474
H      -0.833855   -2.438885    0.576293
H      -3.220036   -2.617290    1.031947
H      -3.627695   -1.937990   -0.543663
H      -2.331802   -4.665302   -0.005735
H      -3.799889   -4.365341   -0.932918
H      -1.349236   -4.570833   -2.252746
H      -2.530664   -3.378797   -2.775681
