15

N       0.064711    1.418136    0.166403
C       0.013460    0.028293    0.034899
C      -1.087348   -0.776976    0.045607
N      -0.638047   -2.110932   -0.018005
C      -1.448823   -3.233777   -0.032474
O      -2.653746   -3.185792    0.016745
C       0.746818   -2.099518   -0.077408
O       1.382270   -3.290963   -0.150734
C       1.189660   -0.812800   -0.046068
H       0.797522    1.845231   -0.384643
H      -0.818384    1.870802   -0.028477
H      -2.142107   -0.576671    0.098168
H      -0.865881   -4.165408   -0.093823
H       2.331189   -3.132012   -0.161535
H       2.217795   -0.483944   -0.059490
