21

C       0.080584    1.427402   -0.156661
C       0.006136   -0.095885   -0.296982
C      -1.370576   -0.652256    0.071058
C      -2.474672   -0.445491   -1.014167
C      -2.257179   -1.910821   -1.486950
C      -1.540379   -2.182834   -0.150782
O      -0.345829   -2.956065   -0.233389
C      -0.190969   -4.006224    0.593760
O       0.785059   -4.693980    0.593542
H       1.072650    1.799339   -0.429627
H      -0.649613    1.928777   -0.800993
H      -0.120708    1.739373    0.874274
H       0.264213   -0.388345   -1.322199
H       0.760952   -0.564150    0.344715
H      -1.637659   -0.314585    1.078202
H      -3.465862   -0.285823   -0.583199
H      -2.288518    0.337794   -1.751987
H      -3.134271   -2.518035   -1.720374
H      -1.552401   -1.974385   -2.319244
H      -2.210029   -2.627881    0.594733
H      -1.062600   -4.156901    1.261443
