20

C      -0.575634    1.183158    0.443916
C       0.120187   -0.135556    0.119137
C       1.092077   -0.076416   -1.088492
O       2.268120   -0.809268   -0.723442
C       1.944723   -1.612018    0.406184
C       1.022985   -0.722415    1.239470
N       1.808472    0.280203    1.943488
C       1.514453    0.709654    3.198530
O       0.568104    0.337442    3.861050
H       0.153662    1.974157    0.643352
H      -1.203280    1.507931   -0.392257
H      -1.211760    1.084504    1.328162
H      -0.644478   -0.894025   -0.085331
H       0.641708   -0.509778   -1.991566
H       1.399015    0.949373   -1.323779
H       1.423957   -2.536303    0.109255
H       2.875553   -1.879941    0.912197
H       0.443201   -1.257057    1.992458
H       2.615845    0.660817    1.473570
H       2.253425    1.451007    3.562776
