23

C       0.325826   -0.155688    1.087113
C      -0.590060   -0.047596   -0.143176
C      -1.315869    1.306611   -0.160042
C       0.133664   -0.334544   -1.486128
C       1.411318    0.485300   -1.687855
O       1.809180    0.330523   -3.044766
C       0.433511   -1.836433   -1.689229
C      -0.817049   -2.639747   -1.943964
O      -1.172938   -3.600731   -1.310151
H       0.849026   -1.115619    1.132361
H       1.079067    0.639900    1.098590
H      -0.261252   -0.060108    2.005907
H      -1.361347   -0.822839   -0.039909
H      -0.615116    2.145612   -0.232370
H      -2.009337    1.377327   -1.004453
H      -1.893708    1.445891    0.759406
H      -0.543988   -0.027502   -2.295868
H       1.220822    1.543695   -1.457025
H       2.199568    0.133561   -1.005451
H       2.671711    0.740109   -3.156230
H       1.070113   -1.927561   -2.579097
H       0.964795   -2.270163   -0.836947
H      -1.425820   -2.267131   -2.803038
