12

O      -0.026213   -0.023631    0.032973
C      -0.027041    1.176857    0.032708
N      -1.132590    2.017828   -0.025751
C      -0.709300    3.340851   -0.000474
N       0.550471    3.534042    0.054723
C       1.160832    2.184981    0.070070
C       2.035408    1.971222    1.211694
C       2.745300    1.779861    2.160363
H      -2.084777    1.689652   -0.044037
H      -1.443850    4.139052   -0.033483
H       1.730904    2.053794   -0.860352
H       3.378800    1.611345    2.995829
