13

C      -0.013439    1.428773    0.101259
C      -0.018705   -0.043624   -0.069431
N      -0.204448   -0.745170   -1.144666
C      -0.098494   -2.054596   -0.696544
C       0.144681   -2.039611    0.625124
O       0.258988   -3.273414    1.127746
C       0.058785   -4.036497   -0.033865
N      -0.153919   -3.372146   -1.124786
O       0.211951   -0.796011    1.109771
H       0.949821    1.779110    0.486282
H      -0.199568    1.890301   -0.868763
H      -0.788748    1.748395    0.805235
H       0.105101   -5.102363    0.114644
