20

C       0.004030    1.533333    0.426226
C      -0.010016    0.013359    0.304169
O       0.461739   -0.621678    1.490709
C      -1.409255   -0.526036   -0.062589
O      -1.931214    0.082728   -1.228386
C      -1.429034   -2.077468   -0.165938
C      -2.864135   -2.632943   -0.202330
C      -0.688537   -2.473607   -1.368246
N      -0.120089   -2.725583   -2.343764
H       1.013684    1.885842    0.651955
H      -0.342657    2.000505   -0.497708
H      -0.665515    1.861169    1.232636
H       0.693245   -0.296674   -0.480329
H       0.047280   -0.184355    2.242851
H      -2.103500   -0.251729    0.742879
H      -1.387488   -0.192067   -1.978501
H      -0.889926   -2.467664    0.703187
H      -2.866092   -3.716001   -0.344741
H      -3.367899   -2.407866    0.742009
H      -3.427990   -2.169557   -1.015025
