20

C       0.024377    1.571186    0.024309
C       0.033033    0.041617    0.005929
C       0.802175   -0.565886   -1.196304
C       1.287415   -1.957824   -0.734492
C       1.456546   -1.810213    0.775168
N       2.180685   -0.554232    1.139336
C       0.708941   -0.591641    1.212752
C       1.604015   -2.966122    1.606183
C       1.746142   -3.949914    2.284863
H       1.046088    1.954688    0.108995
H      -0.415596    1.973184   -0.894290
H      -0.556034    1.959519    0.868180
H      -1.003405   -0.323592   -0.008165
H       0.183372   -0.618412   -2.095907
H       1.664359    0.065480   -1.424824
H       0.531967   -2.728360   -0.923932
H       2.212459   -2.269673   -1.227654
H       2.564855   -0.670005    2.074298
H       0.233154   -0.554682    2.187927
H       1.868258   -4.815752    2.886876
