16

O      -0.118257   -0.052628    0.251238
C      -0.062347    1.145816    0.081667
N       1.080666    1.857871   -0.133206
C       2.393208    1.257679   -0.159390
C       3.286486    1.328685   -1.434692
N       4.446073    1.885682   -0.649893
C       3.975388    3.183014   -0.146394
C       3.530579    1.965868    0.565759
H      -0.957119    1.799536    0.083575
H       1.001444    2.856447   -0.245498
H       2.263195    0.228188    0.172255
H       3.534337    0.352161   -1.853164
H       2.942474    1.990667   -2.236637
H       4.757413    3.769770    0.325447
H       3.284460    3.766456   -0.754082
H       3.881316    1.723092    1.563651
