19

C       0.258398    1.506959    0.317404
C      -0.203436    0.115147   -0.132532
C       0.618276   -0.440531   -1.279515
C       2.009026   -0.990495   -1.030985
C       0.916209   -1.961421   -1.381368
C       0.377305   -2.866552   -0.412142
C      -0.076753   -3.640662    0.388834
C       0.406483    0.179524   -2.615042
O      -0.385591    1.057548   -2.850949
H       1.303691    1.492847    0.644745
H       0.163879    2.230990   -0.495441
H      -0.348910    1.859234    1.156519
H      -0.160757   -0.586257    0.705989
H      -1.249699    0.163323   -0.452665
H       2.780753   -0.813306   -1.773070
H       2.351989   -0.974866   -0.003135
H       0.941919   -2.352464   -2.395540
H      -0.477020   -4.324083    1.096192
H       1.051007   -0.244475   -3.422526
