13

N       0.015551    1.408968    0.147302
C       0.025124    0.023416    0.022306
N      -1.013357   -0.779535   -0.001997
N      -0.574900   -2.111652   -0.023317
C       0.715590   -2.014625   -0.030130
O       1.760197   -2.876082   -0.056137
C       2.889866   -2.079280   -0.016737
C       2.576758   -0.770228    0.024714
N       1.179478   -0.724704    0.008557
H       0.439284    1.882661   -0.644543
H      -0.944041    1.722628    0.242752
H       3.832779   -2.597573   -0.022577
H       3.205776    0.100672    0.072197
