21

C      -0.007693    1.551655   -0.002254
C       0.087874    0.022357    0.006965
C       0.707114   -0.543331   -1.251835
C      -0.058731   -0.396271   -2.617834
C       0.332625   -1.841116   -2.927874
C       1.794224   -2.073299   -2.576938
C       2.686922   -0.852043   -2.390219
O       2.048489   -0.067807   -1.379799
C       0.766129   -2.078714   -1.488894
H       0.983559    1.997153   -0.116179
H      -0.631435    1.905370   -0.830296
H      -0.448404    1.921471    0.928308
H       0.691409   -0.308893    0.861022
H      -0.907826   -0.419762    0.130685
H      -1.137215   -0.296552   -2.463972
H       0.285982    0.399775   -3.286082
H      -0.194501   -2.518887   -3.589118
H       2.233241   -3.009061   -2.902293
H       3.688236   -1.128307   -2.038655
H       2.800532   -0.267040   -3.313971
H       0.562671   -2.881046   -0.792312
