16

C       0.030129    1.431375   -0.425783
C      -0.097600    0.085504    0.306576
C      -1.447852   -0.547410    0.150948
N      -2.268080   -0.644532    1.191287
N      -3.385186   -1.240171    0.689367
C      -3.275128   -1.513646   -0.627514
O      -4.312516   -2.111259   -1.254082
C      -2.030070   -1.081398   -1.031451
H       1.028730    1.857447   -0.286463
H      -0.139151    1.317069   -1.501402
H      -0.703672    2.149819   -0.048078
H       0.674423   -0.601352   -0.062866
H       0.084782    0.224756    1.376521
H      -4.169226   -1.436918    1.286891
H      -4.080667   -2.237666   -2.179183
H      -1.604654   -1.143506   -2.020127
