20

C      -0.226010    1.384431   -0.013730
C       0.044872   -0.111618    0.089509
C       1.240989   -0.569566   -0.753481
C       2.181849   -0.418919    0.379007
C       0.913821   -0.532707    1.315677
C       1.064682   -2.028387    1.092626
C       1.455918   -3.094711    2.054123
C       0.135851   -3.177283    1.294348
N       1.875619   -1.790034   -0.127595
H       0.691552    1.964327    0.135447
H      -0.629936    1.646527   -0.997794
H      -0.954705    1.703201    0.739177
H      -0.884625   -0.681080   -0.031648
H       1.414210   -0.434450   -1.813938
H       3.182305   -0.021624    0.483994
H       0.756391   -0.088073    2.297382
H       2.250105   -3.769754    1.753663
H       1.422244   -2.875598    3.116510
H      -0.785590   -3.013051    1.844502
H       0.063223   -3.910205    0.497922
