15

O      -0.044329    0.004593   -0.011573
C      -0.011798    1.197953   -0.009602
O      -1.115060    1.998726   -0.017399
C      -0.615869    3.351413    0.162508
O       0.629639    3.351615   -0.494799
C       1.203819    2.144898    0.010047
C       1.701458    2.374041    1.449010
C       0.669765    3.154925    2.230763
C      -0.430396    3.620343    1.641307
H      -1.297496    4.033355   -0.344489
H       1.987430    1.803488   -0.665594
H       1.905584    1.410456    1.930490
H       2.652646    2.921222    1.425820
H       0.857671    3.323963    3.286981
H      -1.204288    4.158272    2.176501
