20

O       0.014882   -0.091883   -0.206855
C       0.015176    1.117549   -0.055344
N      -1.170714    1.796413    0.124679
C      -1.441666    3.216146   -0.086911
C      -0.580753    4.183282    0.737402
C       0.936859    3.962152    0.636887
C       1.392317    3.271653   -0.682143
C       1.316148    1.897180    0.051972
C       1.417961    2.691529    1.391365
H      -1.960668    1.176170    0.013634
H      -1.355204    3.473970   -1.152492
H      -2.490520    3.376153    0.179623
H      -0.829332    5.192790    0.387885
H      -0.877495    4.133118    1.792218
H       1.454879    4.888504    0.898495
H       0.798905    3.417240   -1.587664
H       2.433050    3.508638   -0.916548
H       2.110083    1.182833   -0.161231
H       2.458613    2.779497    1.713685
H       0.812632    2.340815    2.231153
