9

O      -0.067333   -0.004038    0.004980
N      -0.015008    1.218054    0.007764
O       0.982644    1.915604    0.002682
C      -1.299904    1.888047    0.018892
C      -2.554831    1.371408    0.026297
N      -3.395247    2.455882    0.035591
N      -2.742905    3.531841    0.033394
O      -1.341317    3.206120    0.023367
H      -2.894745    0.351539    0.025742
