20

C      -0.030274    1.523795    0.041475
C       0.036216    0.013348    0.058656
C       0.895301   -0.815600   -0.971113
C       0.724344   -1.931050    0.116659
C       0.835330   -0.771214    1.140474
C      -0.790064   -2.195501   -0.000558
C      -1.736081   -1.694788    1.063921
C      -1.297498   -0.766208   -0.043180
H       0.970066    1.968566    0.068887
H      -0.532427    1.887565   -0.862823
H      -0.590414    1.903281    0.903683
H       0.459901   -1.001018   -1.957895
H       1.922901   -0.451084   -1.068167
H       1.384893   -2.797103    0.164901
H       1.860901   -0.401606    1.214803
H       0.425328   -0.884768    2.145353
H      -1.129150   -2.949581   -0.702032
H      -2.756023   -2.059612    0.983968
H      -1.416641   -1.552063    2.089276
H      -2.023799   -0.430420   -0.776033
