19

C      -0.013082    1.530894   -0.030783
C       1.430130    2.055186   -0.002356
N       2.155844    1.641286    1.197133
C       1.931841    0.314203    1.608377
C       2.597582   -0.455038    2.538286
C       1.945470   -1.720310    2.579386
C       0.918477   -1.690539    1.669201
N       0.900068   -0.439474    1.086054
C       0.006607    0.001723    0.028539
H      -0.566419    1.932563    0.826486
H      -0.528150    1.854018   -0.941154
H       1.965625    1.678678   -0.885308
H       1.453983    3.146771   -0.056524
H       2.021625    2.294699    1.958916
H       3.448382   -0.135669    3.119743
H       2.211318   -2.560380    3.202826
H       0.211361   -2.445024    1.362905
H      -0.993234   -0.400090    0.220148
H       0.340623   -0.400790   -0.938478
