16

O       0.066901    1.235031   -0.138303
C       0.083609   -0.102016   -0.059572
N       0.064444   -0.852195   -1.155202
N       0.115972   -2.090515   -0.593901
C       0.026118   -3.420101   -1.159315
C       0.356209   -4.291422    0.088671
C       0.112487   -3.389170    1.341610
C       0.140252   -2.021532    0.740532
N       0.127462   -0.757355    1.138175
H       0.085627    1.560120    0.769775
H      -0.980691   -3.603750   -1.552325
H       0.740788   -3.554027   -1.975006
H      -0.242120   -5.203449    0.111684
H       1.407348   -4.587667    0.052688
H      -0.860538   -3.586540    1.806145
H       0.872325   -3.533540    2.113298
