16

N       0.141923    1.341477    0.538509
C      -0.022515    0.036048    0.076062
C      -1.199120   -0.707718    0.007234
N      -0.785603   -1.895524   -0.559321
C      -0.864665   -3.368868   -0.667679
C       0.707795   -3.338584   -0.914479
O       1.206378   -3.832116   -2.124793
C       0.554827   -1.837391   -0.701376
N       1.081065   -0.685938   -0.336103
H       1.025710    1.725603    0.231910
H      -0.620263    1.962053    0.304146
H      -2.224126   -0.455191    0.215732
H      -1.172846   -3.862555    0.258436
H      -1.467987   -3.723521   -1.507622
H       1.257976   -3.854353   -0.122994
H       0.925132   -3.236751   -2.828573
