16

C      -0.565002    1.265328   -0.720569
N      -0.322876   -0.151590   -0.510956
C       0.712601   -0.757567   -0.876058
O       0.868170   -2.110913   -0.590671
C       0.178054   -2.659745    0.459431
O       0.199158   -3.834227    0.656581
C       1.936616   -0.365530   -1.651599
C       1.882619   -0.183757   -3.114452
O       2.029802    0.926275   -2.230782
H       0.226590    1.796819   -1.249821
H      -1.505874    1.372952   -1.271580
H      -0.725007    1.731231    0.258045
H      -0.346752   -1.903459    1.056477
H       2.860699   -0.751634   -1.222880
H       2.758536   -0.427698   -3.711455
H       0.923035   -0.251536   -3.622528
