17

O      -0.046314    0.012549   -0.252824
C       0.059870    1.149687    0.137608
C       1.306531    1.944859    0.057832
C       1.182174    3.473909   -0.101660
C       1.630256    2.909119    1.182532
O       0.814835    2.999572    2.361146
C       1.991416    3.273077    3.138797
C       2.938765    2.119946    3.102142
C       2.910769    3.108295    1.947864
H      -0.798395    1.686587    0.598575
H       2.137852    1.444625   -0.427681
H       1.899758    3.965090   -0.749605
H       0.174524    3.876797   -0.136834
H       1.917062    4.028560    3.910693
H       3.807657    2.209093    3.746859
H       2.554344    1.112497    2.973553
H       3.764677    3.685100    1.621123
