18

C       0.104385    1.333859   -0.055331
O       0.114480   -0.072755   -0.069989
C       0.574874   -0.618875    1.151154
C       0.616849   -2.106564    1.036520
N      -0.263952   -2.883677    1.646635
N       0.141482   -4.119539    1.267880
C       1.227784   -4.044661    0.462981
C       1.919950   -5.226154   -0.127728
N       1.555231   -2.775964    0.301803
H       1.111464    1.749481    0.110975
H      -0.257961    1.666842   -1.030892
H      -0.562389    1.732548    0.726523
H       1.584316   -0.240549    1.379827
H      -0.091389   -0.342329    1.982123
H      -0.357352   -4.930503    1.595316
H       1.262742   -5.778586   -0.807859
H       2.786028   -4.878020   -0.691108
H       2.262022   -5.922347    0.645364
