21

C       0.078358    1.557897    0.181202
C       0.056830    0.028451    0.123327
C       0.260944   -0.580119    1.522888
N      -1.171124   -0.383160   -0.562693
C      -1.331026   -1.789220   -0.892572
C      -2.291387   -2.548634    0.058163
O      -3.541184   -1.894955    0.149031
C      -1.865972   -1.924099   -2.268733
N      -2.344255   -2.049785   -3.313702
H       1.014233    1.918692    0.617650
H      -0.032950    1.981511   -0.819662
H      -0.743394    1.933150    0.803302
H       0.888910   -0.298535   -0.515540
H      -0.553976   -0.288052    2.195502
H       0.300690   -1.673855    1.492139
H       1.201673   -0.232974    1.963440
H      -2.006790   -0.054337   -0.089045
H      -0.353708   -2.286378   -0.872353
H      -2.394243   -3.593279   -0.268180
H      -1.866994   -2.539795    1.065129
H      -3.991125   -1.991131   -0.699122
