18

C       0.083663    1.488760    0.143957
O       1.382921    2.018744   -0.065199
C       2.025698    1.586413   -1.234044
C       3.521786    1.303532   -1.066008
N       3.645188    0.215420   -0.067639
C       3.341074   -0.120458   -1.472073
C       1.825340    0.083334   -1.660367
C       0.833577   -0.666598   -0.835382
C       0.001982   -0.005660   -0.034046
H      -0.177386    1.760582    1.172209
H      -0.652417    1.990558   -0.511251
H       1.827281    2.272005   -2.070747
H       4.342398    1.985306   -1.250188
H       4.643723    0.060185    0.069155
H       3.992333   -0.758149   -2.057197
H       1.568837    0.026445   -2.724517
H       0.788025   -1.748885   -0.928427
H      -0.766690   -0.523544    0.532917
