15

O      -0.329169    1.339734   -0.891983
C       0.087633    1.642360    0.204948
N       1.374218    1.484418    0.622916
C       2.415220    0.982478   -0.263986
C       3.539656    1.905889   -0.392055
C       4.468769    2.664324   -0.471565
C       5.596653    3.586232   -0.581360
C       6.265965    3.826465    0.704361
N       6.794634    4.021684    1.711927
H      -0.549295    2.078187    0.998390
H       1.636493    1.813430    1.538431
H       2.777832    0.006322    0.083725
H       1.929562    0.821296   -1.231838
H       6.339946    3.197233   -1.289054
H       5.267750    4.552765   -0.984042
