16

O      -0.073937    1.464139    0.054414
C       0.026024    0.050440    0.114670
C      -1.372862   -0.522757   -0.121798
C      -1.404422   -2.019324   -0.051478
C      -1.580357   -2.890275   -1.082060
O      -1.534857   -4.179505   -0.649951
C      -1.323043   -4.133533    0.691013
C      -1.234216   -2.847657    1.114907
H       0.803269    1.834250    0.188226
H       0.714602   -0.340850   -0.650498
H       0.403233   -0.284601    1.094060
H      -2.047889   -0.086698    0.624202
H      -1.724596   -0.181836   -1.101074
H      -1.750582   -2.755099   -2.137856
H      -1.265283   -5.087650    1.188412
H      -1.075822   -2.516266    2.129885
