21

C      -0.229482    1.672528   -0.006535
C      -0.237546    0.170170    0.160156
C      -1.408137   -0.542073   -0.495846
O      -1.348869   -0.420806   -1.907225
O       1.012700   -0.504600   -0.117100
C       0.502899   -0.526192    1.227535
C       1.307087    0.142216    2.288674
C       0.924674   -0.072322    3.735898
C       2.179061   -0.699514    3.191617
H       0.730047    2.105207    0.279737
H      -0.423125    1.919918   -1.054225
H      -1.017745    2.131180    0.600454
H      -1.415210   -1.597655   -0.186096
H      -2.357624   -0.091431   -0.186861
H      -0.490246   -0.773925   -2.169648
H       0.120653   -1.506037    1.528956
H       1.692464    1.121011    2.027998
H       1.013745    0.768768    4.413716
H       0.081395   -0.722454    3.945666
H       2.182808   -1.772518    3.030712
H       3.136833   -0.292166    3.494482
