21

C      -0.056123    1.559958    0.108963
C       0.006902    0.035105   -0.009845
C       0.942858   -0.449709   -1.159593
C       2.388183   -0.566804   -0.557465
C       2.148315   -0.429844    0.916702
C       2.761812    0.048707    1.991621
C       1.749255    0.188692    3.106689
O       0.474296   -0.043215    2.493072
C       0.686351   -0.621607    1.215590
H       0.942372    1.995606    0.221615
H      -0.515472    1.996650   -0.783549
H      -0.643201    1.853856    0.982735
H      -1.006406   -0.352088   -0.157174
H       0.615017   -1.430990   -1.516964
H       0.907113    0.226198   -2.018277
H       2.842939   -1.527977   -0.821767
H       3.062277    0.209982   -0.929696
H       3.794746    0.358697    2.090447
H       1.910914   -0.532428    3.925926
H       1.753725    1.192622    3.553481
H       0.408520   -1.691082    1.242676
