13

C      -0.002583    1.498099    0.032751
C       0.020947   -0.002398   -0.021796
C      -0.111592   -0.716498   -1.213346
C      -0.072655   -2.101952   -1.129305
N       0.083628   -2.750651    0.027515
C       0.197592   -1.960678    1.081598
F       0.353038   -2.580861    2.236660
N       0.178435   -0.644264    1.146050
H       0.928901    1.871096    0.469946
H      -0.132194    1.938218   -0.957947
H      -0.815360    1.836519    0.682916
H      -0.239407   -0.213158   -2.163305
H      -0.169659   -2.721740   -2.017337
