21

C       0.114111    1.423480   -0.369103
C      -0.012511    0.017548    0.229716
C      -1.407964   -0.557436    0.108773
O      -2.375235    0.085472    0.905980
C      -2.010250   -1.109112   -1.185589
C      -0.977033   -1.936728   -1.929870
O      -0.655027   -2.688520   -0.728157
C      -1.704849   -2.026439   -0.003252
C      -2.521565   -2.844503    0.939760
H       1.130049    1.812184   -0.253560
H      -0.125856    1.423553   -1.438029
H      -0.560999    2.130552    0.126792
H       0.700008   -0.664929   -0.241196
H       0.240380    0.045945    1.296491
H      -2.598297    0.923561    0.486735
H      -2.959715   -0.756493   -1.568198
H      -1.408003   -2.598584   -2.690345
H      -0.102932   -1.422805   -2.347511
H      -1.875341   -3.286927    1.706675
H      -3.260171   -2.211420    1.434710
H      -3.032522   -3.659083    0.417281
