12

C       0.010512    1.512148    0.013293
C      -0.058540    0.020111    0.041471
C      -1.161892   -0.721227   -0.163107
C      -1.095613   -2.171744   -0.108495
O      -2.002321   -2.940195   -0.271564
O       0.168970   -2.672760    0.163472
N       1.309398   -1.828593    0.372903
N       1.173207   -0.605481    0.310721
H       0.725005    1.842088   -0.748137
H      -0.966157    1.950165   -0.198309
H       0.373926    1.890942    0.974286
H      -2.129149   -0.281054   -0.373260
