15

C       0.133344    1.462793    0.063404
C      -0.050210   -0.006562    0.000747
C      -1.107590   -0.863296   -0.109361
C      -2.518274   -0.495954   -0.207555
O      -3.440622   -1.272000   -0.298688
N      -0.647851   -2.186183   -0.106008
C       0.631915   -2.062563   -0.006629
N       1.590186   -3.037727   -0.031198
O       1.087283   -0.776930    0.066578
H       0.762272    1.817492   -0.761050
H      -0.831035    1.969440    0.001699
H       0.619744    1.761267    0.999149
H      -2.694100    0.603695   -0.191299
H       1.223155   -3.959988    0.150162
H       2.439413   -2.825006    0.470367
