20

C       1.366720    0.166426    1.159315
C       0.327053    0.401775    0.057336
C       0.663002   -0.372271   -1.207011
C       0.510194   -1.917895   -1.319871
C      -0.262732   -1.638764   -2.606747
C      -1.489126   -0.847049   -2.342266
C      -2.304110   -1.004667   -1.169680
C      -3.057959   -1.168590   -0.245725
N      -0.177662   -0.135631   -2.447197
H       1.410184   -0.889999    1.446921
H       2.369938    0.461994    0.831988
H       1.126110    0.743117    2.057235
H      -0.667092    0.132407    0.419609
H       0.291305    1.467706   -0.201641
H       1.677436   -0.098028   -1.517738
H       1.453499   -2.445971   -1.464268
H      -0.067036   -2.419511   -0.537992
H      -0.101099   -2.123449   -3.564755
H      -2.072672   -0.613114   -3.230439
H      -3.710718   -1.299061    0.581783
