17

N      -0.036452    1.485547   -0.225077
C      -0.016077    0.040223   -0.045403
C       0.659459   -0.527435    1.192010
C      -0.018663   -1.538244    1.728371
C      -1.275958   -1.860695    0.950242
O      -2.396802   -2.222326    1.718515
C      -1.453414   -0.575062    0.057984
C      -2.363478    0.345482    0.737152
N      -3.072098    1.042914    1.327935
H      -0.347365    1.947186    0.625123
H       0.895721    1.829053   -0.431375
H       0.456389   -0.378727   -0.944058
H       1.613257   -0.143925    1.539203
H       0.270405   -2.129998    2.589407
H      -1.107064   -2.720115    0.289688
H      -2.629513   -1.478726    2.289043
H      -1.870421   -0.806497   -0.924683
