16

O      -0.062455    1.380877    0.065638
C       0.003556   -0.006338    0.023027
C       0.903177   -0.740791    1.021780
O       0.614006   -2.101020    0.687156
C      -0.337920   -1.957783   -0.357429
C      -1.334753   -0.803959   -0.045218
C      -1.422799   -0.501820   -1.560127
C       0.072664   -0.818971   -1.328792
H       0.808856    1.736691   -0.139995
H       1.971833   -0.528243    0.878647
H       0.636316   -0.529241    2.064521
H      -0.677559   -2.926489   -0.717391
H      -2.129025   -0.797374    0.701688
H      -1.987773   -1.209862   -2.172337
H      -1.656526    0.530082   -1.823323
H       0.891073   -0.829938   -2.050472
