15

C       0.040434    1.492862   -0.044067
C      -0.055666    0.008924   -0.061840
C      -1.107747   -0.864202    0.074513
C      -2.518359   -0.607066    0.242826
O      -3.367417   -1.481978    0.288125
C      -0.484621   -2.161705   -0.042275
N      -1.139718   -3.345071    0.083358
N       0.812039   -2.065435   -0.241369
O       1.071012   -0.664502   -0.246782
H       0.701413    1.822540    0.763853
H       0.461678    1.860355   -0.985107
H      -0.941753    1.945017    0.101141
H      -2.810299    0.461130    0.323660
H      -2.145149   -3.290774    0.012427
H      -0.678773   -4.174682   -0.252039
