21

C      -0.050212    1.508910    0.011278
C      -0.012924   -0.014685   -0.001714
C       0.784714   -0.621294   -1.200802
C       1.037714   -2.048625   -0.755182
C       1.013203   -2.062050    0.749170
C       0.745408   -0.642823    1.211707
C      -0.145188   -2.697373   -0.027809
C      -1.435639   -1.976428   -0.042401
C      -1.390567   -0.640870   -0.029748
H       0.960158    1.931040    0.031487
H      -0.559252    1.898006   -0.877641
H      -0.588016    1.882229    0.889967
H       0.227689   -0.543206   -2.140268
H       1.738775   -0.093479   -1.322958
H       1.697274   -2.689239   -1.328832
H       1.653912   -2.712990    1.332480
H       1.694830   -0.117549    1.374276
H       0.158051   -0.581347    2.133773
H      -0.172334   -3.780919   -0.037922
H      -2.364900   -2.536440   -0.062540
H      -2.277026   -0.014569   -0.038602
