14

O      -0.451626    0.630588    0.730768
C       0.219807    0.967935   -0.211204
C       1.328251    1.955275   -0.117114
C       1.846681    2.452151    1.221847
N       2.369119    3.769705    0.896114
C       2.167237    4.200394   -0.386792
O       2.435520    5.283757   -0.850824
C       1.517907    3.032132   -1.119847
O       2.333875    1.862840   -1.132362
H       0.070828    0.565445   -1.235070
H       1.022176    2.492751    1.942038
H       2.622896    1.786772    1.616105
H       2.875992    4.340389    1.553457
H       0.891855    3.206418   -1.988650
