17

C       0.001883    1.504588    0.019239
C       0.019848   -0.006890    0.003408
C       0.581525   -0.700061   -1.259254
O       0.079489   -2.063236   -1.183785
C      -0.671645   -2.140869    0.009867
O       0.172887   -2.086466    1.140729
C       0.680519   -0.724686    1.202808
C      -1.326105   -0.755788    0.050017
O      -2.456389   -0.368713    0.099326
H       1.014463    1.919582   -0.017415
H      -0.556109    1.892686   -0.838004
H      -0.485021    1.875059    0.926166
H       0.216604   -0.230445   -2.180072
H       1.677584   -0.721270   -1.278744
H      -1.271947   -3.045994    0.024946
H       1.774585   -0.745446    1.133786
H       0.391121   -0.273819    2.159143
