22

C      -0.023219    1.660840   -0.034600
C      -0.002720    0.134887    0.086257
C      -1.403197   -0.511145   -0.016355
C      -2.051511   -0.130941   -1.277836
N      -2.519085    0.183305   -2.287054
C      -1.402996   -2.055077    0.100615
C      -0.736470   -2.561371    1.380967
O      -2.768802   -2.434434    0.056755
C      -3.011779   -3.723415   -0.462330
H       0.987862    2.066562    0.061739
H      -0.425381    1.978245   -1.000669
H      -0.640277    2.111313    0.750485
H       0.642918   -0.292963   -0.690124
H       0.429456   -0.148403    1.050350
H      -2.033128   -0.132092    0.799421
H      -0.876708   -2.465974   -0.775860
H       0.341063   -2.377902    1.379511
H      -1.176339   -2.080553    2.260745
H      -0.884807   -3.640474    1.476320
H      -2.628423   -3.823025   -1.488489
H      -2.567378   -4.517697    0.155458
H      -4.095222   -3.861250   -0.476183
