20

C       0.063597    1.565284   -0.039519
C       0.023873    0.040333    0.116185
C      -1.380515   -0.554334    0.000613
O      -2.231169   -0.061077    1.028661
C      -2.098213   -0.527685   -1.403152
C      -2.276024   -2.048841   -1.315139
C      -0.934661   -2.714237   -1.214825
C      -1.525092   -2.081366    0.015005
H       1.090646    1.938227    0.011332
H      -0.355886    1.883009   -1.000851
H      -0.496854    2.067864    0.756914
H       0.670047   -0.416555   -0.641282
H       0.431989   -0.242712    1.094140
H      -2.332141    0.887948    0.900628
H      -3.038023    0.024391   -1.337391
H      -1.521572   -0.162659   -2.260752
H      -3.166412   -2.592987   -1.604338
H      -0.948484   -3.799680   -1.215269
H      -0.065918   -2.288125   -1.711499
H      -1.740094   -2.643224    0.915712
