16

O      -0.079020   -0.089276    0.103309
C      -0.037876    1.122521    0.053091
C      -1.321613    1.956814   -0.051633
C      -1.192590    3.319048    0.626086
N       0.004959    3.991189    0.133968
C       1.147887    3.275555    0.001336
C       1.211331    1.906286    0.000204
C       2.462762    1.245430   -0.107464
C       3.524985    0.683960   -0.195412
H      -1.532495    2.095086   -1.120669
H      -2.145186    1.382076    0.376377
H      -2.062479    3.948246    0.419569
H      -1.124183    3.185094    1.717594
H       0.098146    4.975295    0.325086
H       2.053899    3.860328   -0.122411
H       4.453799    0.176458   -0.273562
