20

O      -0.007134    1.363257   -0.266959
C       0.018761   -0.027751    0.021451
C      -1.410372   -0.523644    0.066774
C      -2.207178   -0.562744   -1.271961
C      -2.668722   -1.979408   -0.903464
C      -4.095834   -2.434164   -0.800118
C      -3.158423   -3.072546   -1.802551
C      -1.628084   -2.058897    0.222949
H       0.900152    1.675003   -0.331973
H       0.574727   -0.584673   -0.751917
H       0.513356   -0.227882    0.986997
H      -1.957089    0.036337    0.830953
H      -2.982844    0.195073   -1.406852
H      -1.545023   -0.540489   -2.144745
H      -4.387710   -3.017176    0.068176
H      -4.872479   -1.774484   -1.175052
H      -3.302706   -2.844530   -2.854280
H      -2.819283   -4.086082   -1.610685
H      -0.739386   -2.635507   -0.060601
H      -1.973790   -2.412755    1.198214
