21

C      -0.003824    1.501611    0.058378
C      -0.003633   -0.011704   -0.056814
C       0.792533   -0.564128   -1.271729
C       1.427628   -1.864381   -0.718130
C       0.899762   -1.912598    0.733382
O       0.716597   -0.555275    1.071742
O      -0.307460   -2.633332    0.864295
C      -1.335315   -2.150237    0.005221
C      -1.420230   -0.616479    0.017435
H       1.022364    1.877282    0.107990
H      -0.498323    1.952081   -0.808157
H      -0.531180    1.822995    0.961240
H       0.148124   -0.741187   -2.137139
H       1.558304    0.155019   -1.572336
H       1.156555   -2.763469   -1.276184
H       2.517759   -1.797777   -0.703177
H       1.586965   -2.357580    1.454592
H      -1.170189   -2.511031   -1.022184
H      -2.265701   -2.601240    0.360619
H      -1.880233   -0.277493    0.951357
H      -2.045526   -0.272147   -0.814379
