14

C      -0.094920    1.547757    0.061020
C       0.063017    0.065598    0.091928
O      -1.177023   -0.708952    0.165683
C      -0.408900   -1.741852    0.783603
C       0.896748   -1.918733    0.004327
C       0.723814   -0.883508    1.174011
C       0.907479   -0.749566   -0.929514
O       1.519340   -0.452844   -1.915444
H       0.882594    2.029051   -0.033992
H      -0.698768    1.830456   -0.806728
H      -0.590758    1.912850    0.964122
H      -0.916918   -2.557914    1.280392
H       1.483525   -2.826073   -0.002320
H       1.342728   -0.735121    2.046129
