21

C       0.161908    1.673292    0.129892
C       0.031199    0.144862    0.110296
C      -1.408572   -0.432520    0.054113
C      -1.410774   -1.984441    0.010099
C      -2.583358   -2.440318    0.914177
C      -2.879341   -1.213842    1.741543
C      -2.245631   -0.132093    1.290994
C      -2.154480    0.155172   -1.145909
O      -2.473229   -0.454589   -2.135315
H       1.212401    1.957714    0.243222
H      -0.200266    2.133657   -0.794269
H      -0.388649    2.120293    0.963993
H       0.590001   -0.254495   -0.745487
H       0.504601   -0.268017    1.009075
H      -1.501749   -2.342621   -1.016433
H      -0.464136   -2.353533    0.415720
H      -3.465841   -2.731223    0.328708
H      -2.323743   -3.309809    1.528355
H      -3.553395   -1.227240    2.591659
H      -2.335443    0.865023    1.707337
H      -2.419917    1.230999   -1.039875
