15

C       0.098884    1.496388   -0.288238
C       0.046549   -0.002308   -0.067020
C       1.353810   -0.793674    0.023250
C       0.549971   -0.583623    1.256535
C      -1.075900   -0.769374   -0.668097
O      -1.233843   -1.965186   -0.566752
C      -2.060598    0.018989   -1.445265
N      -2.836873    0.621619   -2.054734
H       0.975439    1.916961    0.211569
H       0.169391    1.746732   -1.351378
H      -0.786921    1.996637    0.115515
H       1.345998   -1.782952   -0.418910
H       2.263439   -0.221158   -0.118277
H       0.888571    0.138087    1.991185
H      -0.000804   -1.431034    1.647404
