13

C      -0.136978    1.425553    0.118592
C       0.065486   -0.105578   -0.034292
C       0.754779   -0.449914   -1.268785
C       1.312857   -0.709601   -2.299233
C       0.798417   -0.653573    1.192779
O       1.894004   -1.143443    1.203119
C       0.026874   -0.527115    2.452224
N      -0.583073   -0.434984    3.430341
H       0.827918    1.937982    0.125502
H      -0.721253    1.797395   -0.724998
H      -0.672039    1.656233    1.043397
H      -0.930329   -0.572989   -0.024039
H       1.809224   -0.950247   -3.207124
