19

C      -0.000387    1.523624   -0.174878
C      -0.038953   -0.009794    0.005298
N       0.737344   -0.550955    1.119398
C       2.183326   -0.404165    0.997822
C       2.881802   -1.217562    2.102800
C       4.333382   -1.119240    2.029934
C       5.527924   -1.020613    1.942982
C      -1.435925   -0.458106    0.147927
N      -2.539764   -0.777590    0.265652
H       1.026606    1.856683   -0.343522
H      -0.606692    1.829671   -1.031912
H      -0.390511    2.024145    0.716449
H       0.351166   -0.476701   -0.908873
H       0.408514   -0.148890    1.992342
H       2.484553   -0.799265    0.020843
H       2.539630    0.637549    1.043051
H       2.538663   -0.863228    3.084367
H       2.561753   -2.262734    2.025243
H       6.585050   -0.944360    1.878843
