21

C      -0.192465    1.563887    0.035394
C      -0.054666    0.026845    0.012736
C       0.343629   -0.518048   -1.404053
O       1.669010   -0.973707   -1.580989
C       2.706090   -0.031788   -1.688582
O       3.568859   -0.016848   -0.591528
C       3.040489    0.570508    0.596860
C       2.094856   -0.325400    1.368554
C       0.801907   -0.543280    1.124996
H       0.727968    2.082446   -0.241207
H      -0.966700    1.878361   -0.673037
H      -0.485007    1.912616    1.030058
H      -1.068981   -0.354292    0.179990
H      -0.268637   -1.396305   -1.628154
H       0.099481    0.249643   -2.154479
H       3.335899   -0.335359   -2.531238
H       2.288959    0.973338   -1.878285
H       3.915559    0.791151    1.214164
H       2.569556    1.530404    0.348355
H       2.548010   -0.864723    2.197216
H       0.292953   -1.250214    1.777072
