19

C      -0.046649    1.470260    0.035602
C       1.510846    1.574042   -0.061079
C       1.556779    0.080753   -0.398068
C       2.466397   -1.040031    0.058941
O       1.772285   -2.207850   -0.425472
C       0.944886   -1.787663   -1.497799
C      -0.218807   -0.826325   -1.248598
C       1.130961   -0.358003   -1.825916
C       0.053598   -0.091086    0.044586
H      -0.487334    1.912831    0.930964
H      -0.569615    1.865077   -0.838530
H       1.935322    2.267050   -0.792763
H       1.959841    1.785046    0.914684
H       3.479543   -0.989709   -0.370643
H       2.545984   -1.121767    1.148012
H       0.824300   -2.544076   -2.263895
H      -1.167602   -0.942218   -1.764808
H       1.411289    0.080075   -2.775483
H      -0.203372   -0.571591    0.992421
