14

C      -0.105152    1.583014   -0.016456
C       1.453534    1.300310   -0.022601
C       1.295862    0.161952    1.009323
N       1.850569   -1.020563    0.188611
C       0.653201   -1.925640    0.300243
N      -0.480906   -1.333746    0.267185
C       0.040640    0.049517    0.125533
C       1.257307   -0.010678   -0.815316
H      -0.495614    2.130400    0.845147
H      -0.533430    1.960739   -0.948310
H       2.261885    2.022816   -0.108035
H       1.354104    0.195177    2.097906
H       0.794826   -2.995710    0.398240
H       1.269817   -0.182335   -1.892296
