17

O      -0.156818    0.110260    0.599258
C      -0.053605    1.240704    0.170947
N       1.098026    1.821822   -0.257524
C       2.389854    1.147703   -0.258714
C       3.000128    1.113476   -1.688874
C       3.955622    2.283505   -1.686370
C       4.189659    2.729822   -0.452311
C       3.431444    1.936023    0.585444
H      -0.915388    1.932865    0.084113
H       1.057055    2.772126   -0.593325
H       2.194160    0.152349    0.138382
H       3.537215    0.171542   -1.865422
H       2.221116    1.175801   -2.456054
H       4.413369    2.668221   -2.590805
H       4.867971    3.535160   -0.193727
H       2.942528    2.551574    1.347919
H       4.103554    1.251588    1.120879
