16

C      -0.132240    1.438024   -0.007425
C      -0.032102   -0.079368    0.002654
C       1.124843   -0.656092   -0.920579
O       1.617610    0.073633   -1.997573
C       1.942066   -0.608337    0.362772
O       3.009904   -0.082333    0.561983
C       0.721876   -0.668130    1.270887
O       0.797818    0.049066    2.460457
H       0.838853    1.911379    0.173653
H      -0.493844    1.790659   -0.976511
H      -0.815493    1.781053    0.773432
H      -0.999700   -0.549842   -0.177845
H       0.871665   -1.670660   -1.244676
H       2.386777    0.563937   -1.677975
H       0.371948   -1.685590    1.472893
H       1.629166    0.541625    2.440482
