18

C      -0.045959    1.534298    0.112208
C      -0.053537    0.026393    0.039731
C       0.275845   -0.690267   -1.312898
N      -0.883795   -1.630519   -1.179789
C      -0.866296   -2.182278    0.208715
C       0.402802   -2.178017    1.037183
C       0.807591   -0.693222    1.077361
O       1.655673   -0.198863    1.772026
C      -1.364356   -0.806618   -0.017257
H       0.981661    1.908838    0.085185
H      -0.602431    1.976686   -0.719589
H      -0.493491    1.883936    1.048147
H       0.091898   -0.032060   -2.165325
H       1.257033   -1.164280   -1.432040
H      -1.567678   -3.001251    0.318361
H       0.211517   -2.537197    2.053645
H       1.217279   -2.787014    0.630254
H      -2.382500   -0.448011    0.082151
