18

N       0.110082    1.250087    0.534066
C       0.077146    0.106434    0.013694
O       1.138378   -0.731924   -0.188741
C       0.700265   -1.850740   -0.961171
C      -0.823508   -1.837438   -0.773084
O      -1.068248   -0.461474   -0.427229
C      -1.623018   -2.230798   -1.977879
C      -1.993119   -3.684252   -2.172696
C      -3.053789   -2.675926   -1.822554
H       1.070260    1.502008    0.756509
H       0.980705   -1.706432   -2.011908
H       1.178374   -2.754872   -0.580242
H      -1.112167   -2.458302    0.086668
H      -1.381135   -1.660703   -2.870456
H      -1.964238   -4.082580   -3.180081
H      -1.694543   -4.393509   -1.407551
H      -3.468909   -2.699011   -0.820820
H      -3.759222   -2.379237   -2.589672
