21

C      -0.398078    1.690729    0.075890
C      -0.001319    0.211009    0.062908
C      -1.241128   -0.683761   -0.090127
O      -1.911060   -0.327889   -1.292028
C       1.013779   -0.114708   -1.066155
O       1.823803   -1.198113   -0.607009
C       1.864680   -1.133310    0.794919
C       2.208327    0.177851    1.452751
C       0.758433   -0.256257    1.304329
H       0.479476    2.328889    0.216033
H      -0.888674    1.970515   -0.859918
H      -1.097395    1.898364    0.893192
H      -0.922433   -1.736503   -0.111180
H      -1.900291   -0.548030    0.782848
H      -2.623519   -0.956126   -1.438362
H       0.519962   -0.422769   -1.989960
H       1.637447    0.763032   -1.286306
H       2.158295   -2.077247    1.238378
H       2.630230    0.132601    2.451109
H       2.589689    0.993434    0.847921
H       0.188901   -0.500085    2.195001
