15

C      -0.061878    1.559123   -0.091011
C      -0.044018    0.035467    0.121046
C       0.660497   -0.326553    1.357298
N       1.227867   -0.582500    2.329756
N      -1.392192   -0.524834    0.135047
C      -2.172074   -0.958641    1.151202
N      -3.353418   -1.324922    0.692280
C      -3.243114   -1.084882   -0.642433
N      -2.076420   -0.598996   -1.033872
H       0.959745    1.938041   -0.169265
H      -0.600337    1.774588   -1.015383
H      -0.562392    2.056663    0.742759
H       0.478945   -0.438901   -0.716199
H      -1.834909   -0.997394    2.175567
H      -4.039288   -1.277150   -1.345963
