16

C      -0.104474    1.433203   -0.003495
N      -0.028954   -0.018097    0.049152
N      -0.066007   -0.731202   -1.090029
C       0.021745   -1.995878   -0.664133
C       0.019114   -3.153839   -1.604167
N       0.111872   -2.120162    0.680088
C       0.078015   -0.864085    1.110540
C       0.142605   -0.400503    2.506196
O       0.236842   -1.129132    3.461705
H       0.788495    1.885907    0.434668
H      -0.170249    1.708007   -1.055109
H      -0.990738    1.797020    0.522587
H       0.938128   -3.737809   -1.497144
H      -0.818480   -3.823343   -1.386754
H      -0.062657   -2.804138   -2.634441
H       0.096905    0.704538    2.623195
