18

O       0.073798   -0.082030   -0.019166
C       0.036698    1.124694    0.015757
C      -1.312619    1.853308    0.050650
C      -1.704316    2.613965   -1.241265
C      -1.225965    4.066589   -1.275714
O       0.138974    4.193628   -0.858145
C       1.037486    3.518252   -1.634764
N       1.665663    2.489759   -1.267117
C       1.346242    1.937350    0.055453
H      -2.049588    1.070979    0.244630
H      -1.321835    2.549284    0.898807
H      -1.338671    2.067487   -2.117267
H      -2.796573    2.630524   -1.326763
H      -1.360852    4.497859   -2.278073
H      -1.787986    4.677591   -0.564296
H       1.213281    3.950604   -2.623060
H       1.260257    2.727135    0.810932
H       2.139383    1.242906    0.334696
