18

C       0.029425    1.424094    0.185527
C      -0.028494   -0.054945    0.043147
C      -0.133372   -0.986302   -1.139552
C       0.766071   -1.978899   -0.367173
N       0.891332   -1.027822    0.797748
C      -0.222897   -2.055637    0.739902
C      -0.412708   -3.000597    1.876880
O      -0.793978   -2.320223    3.060884
C      -1.156698   -1.054644    0.009966
H       1.014062    1.808605   -0.102200
H      -0.723117    1.897518   -0.453831
H      -0.165385    1.726051    1.220661
H      -0.296504   -0.788501   -2.189383
H       1.573396   -2.641076   -0.658684
H      -1.211628   -3.717920    1.659147
H       0.519990   -3.571779    2.015186
H      -0.141111   -1.620361    3.183688
H      -2.228684   -0.920106   -0.020665
