20

C      -0.361611    1.480088    0.085825
C       0.189187    0.049144    0.029859
C       0.781160   -0.319939   -1.307889
O       1.816385   -1.323363   -1.298727
C       2.152021   -0.003948   -1.752408
C       2.143753    0.152531   -3.263764
N       0.761027   -0.088313   -3.740675
C       0.232312   -1.444705   -3.548054
C      -0.078175   -0.381263   -2.556941
H       0.422765    2.213380   -0.127483
H      -1.167104    1.636132   -0.638399
H      -0.764989    1.697779    1.078950
H       0.970518   -0.084191    0.784973
H      -0.605714   -0.666096    0.276985
H       2.878142    0.530577   -1.141308
H       2.420910    1.180260   -3.526880
H       2.849122   -0.522706   -3.759226
H      -0.517705   -1.736617   -4.278749
H       0.907397   -2.230286   -3.225535
H      -1.057714    0.086614   -2.518433
