18

C       0.054552    1.508503   -0.265233
O       1.458573    1.519351    0.068580
C       1.391506    0.171644    0.598830
C       1.496877    0.128496    2.123601
C       0.699473   -1.051711    2.705463
C      -0.724007   -1.042893    2.201305
C      -1.064833   -0.531949    1.017160
C      -0.047195   -0.005392    0.057178
H      -0.532171    2.157195    0.398915
H      -0.122176    1.804868   -1.305249
H       2.148945   -0.469955    0.132770
H       2.545368    0.090241    2.436495
H       1.076338    1.061065    2.514792
H       1.184311   -2.006611    2.453116
H       0.708583   -0.999349    3.799751
H      -1.488834   -1.465130    2.848149
H      -2.105064   -0.528293    0.698450
H      -0.063273   -0.593068   -0.867008
