19

C       0.060018    1.452534   -0.075300
N      -0.014420    0.010402    0.087262
C      -1.385467   -0.520467    0.317905
C      -1.120242   -1.369567    1.586703
C      -0.292870   -0.360367    2.453517
C       0.698139   -0.531909    1.260429
C       0.259608   -2.015068    1.218656
C      -2.221061   -2.134129    2.123907
N      -3.100262   -2.747352    2.558061
H       1.103943    1.748186   -0.220856
H      -0.495568    1.745390   -0.971474
H      -0.345002    2.030857    0.775113
H      -2.117011    0.272963    0.512182
H      -1.738954   -1.124311   -0.523700
H      -0.733555    0.621485    2.638363
H       0.058384   -0.807076    3.384318
H       1.742966   -0.229834    1.311401
H       0.664051   -2.615867    2.033439
H       0.333407   -2.532582    0.260943
