10

N       0.004586   -1.140249   -0.012909
C       0.003463    0.016717    0.003533
C       0.004691    1.452639    0.024955
C       0.496673    2.182348    1.264926
C       1.328657    2.200403    0.020407
H      -0.818233    1.903292   -0.518682
H      -0.044953    3.078079    1.545042
H       0.830537    1.572533    2.095432
H       2.231815    1.602976   -0.000627
H       1.368379    3.108758   -0.569062
