21

C      -0.145050    1.503295   -0.091962
C       1.404790    1.742312    0.022591
C       1.529175    0.272032    0.531483
C       0.058183   -0.044711    0.091863
O      -0.209166   -1.007531   -0.923215
C       0.182158   -0.857740   -2.310662
C       1.477748   -0.115570   -2.357773
C       1.425110    1.218467   -2.323166
C       2.170110    2.033711   -1.315802
H      -0.667645    1.907121    0.780365
H      -0.670842    1.853148   -0.979829
H       1.684212    2.497655    0.763388
H       2.320598   -0.349128    0.110968
H       1.619738    0.234119    1.621715
H      -0.542610   -0.439635    0.915003
H       0.216698   -1.885298   -2.685072
H      -0.595872   -0.311981   -2.862892
H       2.353190   -0.643268   -1.986376
H       0.519915    1.686139   -2.707082
H       2.156375    3.105444   -1.539625
H       3.214487    1.724682   -1.197117
