21

C      -0.005854    1.522175    0.060088
C      -0.082217   -0.003060   -0.025612
C      -1.551485   -0.455552    0.017063
C       0.655238   -0.504162   -1.282696
C       0.851578   -2.029682   -1.286481
C       1.360583   -2.553920    0.045423
O       2.116714   -3.491156    0.143691
C       0.790256   -1.855462    1.279363
O       0.632851   -0.457023    1.137693
H       1.037555    1.845772    0.103237
H      -0.480941    1.983363   -0.810745
H      -0.511041    1.878675    0.962040
H      -2.111139   -0.001933   -0.806583
H      -1.668408   -1.539521   -0.066476
H      -2.009503   -0.138962    0.958465
H       0.117490   -0.191475   -2.184567
H       1.636363   -0.017012   -1.310402
H      -0.109254   -2.531821   -1.468492
H       1.531212   -2.358622   -2.076706
H      -0.165263   -2.352111    1.526061
H       1.469773   -2.018035    2.118979
