17

O      -0.053777    1.443996   -0.118929
C       0.002630    0.035546   -0.023877
C      -1.387450   -0.576135    0.043631
O      -2.053139   -0.215092   -1.158287
C      -3.404941   -0.602308   -1.197178
C      -3.964413   -0.134097   -2.546476
C      -5.370147   -0.490257   -2.708883
N      -6.482661   -0.781141   -2.819635
H      -0.650851    1.636772   -0.850771
H       0.547194   -0.407060   -0.873108
H       0.553224   -0.206010    0.890874
H      -1.330875   -1.671868    0.142706
H      -1.933608   -0.176302    0.911919
H      -3.506188   -1.694497   -1.105681
H      -3.972861   -0.146417   -0.371759
H      -3.853518    0.952164   -2.629713
H      -3.379603   -0.582023   -3.356584
