16

N       0.106982    1.343539   -0.234155
C      -0.021703   -0.007817   -0.089106
C      -1.216499   -0.665666    0.011114
N      -2.412117    0.126928    0.042847
C      -1.162176   -2.089959    0.084284
C       0.014178   -2.765761    0.071699
C       1.265792   -2.059334   -0.022715
N       2.419426   -2.592482   -0.034077
O       1.159021   -0.651065   -0.108145
H       0.975611    1.741827    0.088451
H      -0.737341    1.844928    0.005480
H      -3.023078   -0.156538    0.802477
H      -2.948732    0.036908   -0.815633
H      -2.099622   -2.635105    0.158900
H       0.074990   -3.843435    0.132809
H       3.147120   -1.882728   -0.111375
