22

C       0.046371    1.488291   -0.333072
C      -0.225859    0.188940    0.434184
C      -1.368742   -0.605914   -0.166643
C      -1.136516   -1.563753   -1.311555
C      -1.562693   -2.088681    0.049469
C      -0.631716   -2.922331    0.907028
C      -0.662126   -4.435124    0.660871
N      -0.982845   -4.815956   -0.608876
O      -0.386645   -5.233787    1.534707
H       0.865610    2.053213    0.122088
H       0.315406    1.281236   -1.374137
H      -0.838852    2.133705   -0.342668
H       0.686620   -0.417311    0.452549
H      -0.456570    0.424324    1.481400
H      -2.296305   -0.039880   -0.225379
H      -1.842896   -1.584708   -2.135115
H      -0.104610   -1.733377   -1.607949
H      -2.602608   -2.399395    0.119051
H       0.409081   -2.607276    0.767431
H      -0.849722   -2.790595    1.970986
H      -1.223893   -4.146987   -1.318573
H      -0.993741   -5.798982   -0.823649
