20

C       0.183307    1.282063    0.344348
O       0.039206   -0.098259    0.103483
C       0.500846   -0.534382   -1.167972
C       2.028235   -0.534278   -1.282986
C      -0.092933   -1.923066   -1.381119
C       0.231081   -2.976334   -0.346738
C      -1.311747   -2.039124   -2.192228
O      -0.028725   -2.350344   -2.749132
H       1.235052    1.592020    0.424184
H      -0.293941    1.883213   -0.445710
H      -0.312410    1.495149    1.294831
H       0.092217    0.122697   -1.953044
H       2.322017   -0.991074   -2.232302
H       2.429388    0.482600   -1.261280
H       2.482840   -1.097114   -0.462742
H      -0.074749   -2.632706    0.644752
H      -0.286092   -3.910308   -0.578941
H       1.305368   -3.183966   -0.319346
H      -1.974533   -2.891393   -2.048150
H      -1.789527   -1.144205   -2.588850
