20

C      -0.299643    1.448074   -0.249215
C      -0.055104   -0.019099    0.030552
C       1.264071   -0.663530   -0.307478
O       2.332364    0.101103   -0.779468
C       0.844656   -0.559075    1.146028
N       1.615654    0.312997    1.986364
C       2.941744   -0.162189    2.386397
C       0.999112    1.258473    2.773117
O       1.535807    1.880742    3.662759
H       0.580146    2.067353   -0.062177
H      -0.572966    1.582071   -1.300943
H      -1.117545    1.842407    0.361742
H      -0.927571   -0.644827   -0.139529
H       1.272246   -1.642659   -0.773542
H       2.472228    0.831279   -0.165349
H       0.510240   -1.476161    1.631792
H       3.415433    0.616370    2.983527
H       2.864374   -1.073767    2.993432
H       3.540215   -0.382671    1.500352
H      -0.057045    1.404676    2.486328
