17

N      -0.084347    1.538614    0.065265
C      -0.023882    0.096066   -0.011104
C       0.826251   -0.455126    1.152440
C       2.189500    0.059655    1.163817
C       3.302606    0.512224    1.178824
C      -1.389414   -0.624254   -0.153000
O      -0.930358   -1.281499   -1.373297
C       0.262623   -0.583433   -1.358887
N       1.187203   -0.526008   -2.201741
H       0.860809    1.907804    0.134842
H      -0.483469    1.923261   -0.785924
H       0.323234   -0.179544    2.087725
H       0.839538   -1.549813    1.100897
H       4.294286    0.892204    1.181463
H      -1.652286   -1.353096    0.617794
H      -2.232291    0.041494   -0.355090
H       0.993601   -1.113378   -3.015159
