17

N      -0.084207    1.162989    0.490562
C      -0.106339   -0.052832    0.192933
O       0.929958   -0.901034   -0.219907
C      -0.031087   -1.959542   -0.459629
C      -0.655030   -2.350878    0.834144
C      -1.155724   -1.105534    0.078855
N      -1.563087   -3.454149    0.770332
C      -1.176443   -4.653527    1.513315
C      -2.277837   -3.781395    2.004254
H       0.860393    1.544174    0.416956
H       0.068639   -2.556411   -1.354593
H      -0.072331   -2.211404    1.750476
H      -2.186090   -0.996188   -0.221606
H      -1.395411   -5.597283    1.023077
H      -0.237094   -4.629675    2.062260
H      -2.078754   -3.170483    2.882280
H      -3.314540   -4.078579    1.878751
