18

O       0.014537    1.434208   -0.125607
C      -0.002599    0.037938    0.126885
C      -1.390039   -0.504183    0.003141
C      -2.127784   -0.994741   -1.211616
C      -3.482763   -0.321491   -1.285029
C      -3.718204   -0.162191    0.200499
C      -3.090353   -1.268744    0.967125
C      -2.024062   -1.868621    0.039961
N      -2.438497    0.084540    0.936843
H      -0.637275    1.819969    0.472543
H       0.658914   -0.430489   -0.609395
H       0.398305   -0.187093    1.127768
H      -1.564872   -1.275658   -2.092959
H      -3.438912    0.641860   -1.803754
H      -4.251660   -0.942271   -1.757337
H      -4.574982    0.372793    0.594529
H      -3.470674   -1.697808    1.886487
H      -1.586189   -2.855808    0.077330
