15

O       0.118954    1.385918   -0.130760
C       0.037501    0.021778   -0.064462
C       0.701408   -0.813588   -1.158163
C      -0.533354   -1.753241   -1.085713
O      -0.899484   -2.663107   -1.773208
C      -1.189775   -0.945789   -0.006287
C      -0.220076   -0.753148    1.188461
C       0.631858   -1.852393    1.729449
O       0.941820   -1.936168    2.890562
H      -0.209984    1.774516    0.687144
H       0.692187   -0.280603   -2.113774
H       1.700292   -1.217302   -0.978526
H      -2.251512   -0.792819    0.144903
H      -0.666250   -0.154199    1.981729
H       0.961644   -2.609674    0.985563
