12

O       0.007479   -0.037237    0.003344
C      -0.002154    1.169191    0.008905
N      -1.157136    1.999446    0.029330
C      -0.750541    3.310963    0.031288
C       0.619879    3.358366    0.012947
N       1.083569    2.048454   -0.000565
N       1.051106    4.630095    0.013913
N      -0.009271    5.406771    0.032140
N      -1.128130    4.599256    0.043235
H      -2.082145    1.607889    0.041325
H       2.032354    1.718408   -0.013916
H      -2.037556    5.028732    0.058071
