19

O       0.349066    0.537308   -1.136197
C       0.059851    1.363005   -0.332274
C      -1.203539    1.908052    0.335195
C      -0.220102    2.841593    1.065238
C      -0.064862    2.697114    2.567291
C       1.146634    3.430251    3.102460
C       1.059227    4.897421    3.448140
C       1.199855    3.867389    4.542602
O       0.902431    2.212230    0.338135
H      -1.908415    2.377013   -0.352920
H      -1.727639    1.183183    0.961491
H      -0.282963    3.892183    0.768894
H      -0.976479    3.083241    3.042841
H      -0.005136    1.628915    2.814641
H       2.083909    3.098742    2.665685
H       1.908619    5.532727    3.224031
H       0.097954    5.390532    3.340565
H       0.333009    3.669596    5.165065
H       2.146046    3.797797    5.067261
