15

C      -0.047400   -1.230034   -0.004601
C      -0.044322   -0.028173    0.002563
C      -0.007588    1.428645    0.010719
C       1.427456    1.990542   -0.001003
C       1.436729    3.531659    0.007943
C       2.783243    4.088897   -0.002841
C       3.903787    4.523435   -0.012251
H      -0.061128   -2.291594   -0.010895
H      -0.558323    1.813182   -0.858268
H      -0.539967    1.802892    0.895493
H       1.974929    1.615708    0.868968
H       1.956558    1.626003   -0.886575
H       0.879037    3.906065   -0.861033
H       0.897388    3.895777    0.892727
H       4.889625    4.917372   -0.020814
