21

O       0.004110    0.013055   -0.334156
C      -0.011495    1.178535   -0.064342
C      -1.131274    2.186909    0.236828
C      -0.034652    3.163513    0.778892
C       1.081799    2.221079    0.217183
C      -0.061210    4.590684    0.276411
C      -1.155637    5.564916    0.803961
C      -0.089150    6.692882    0.819615
C       1.011466    5.598630    0.784953
H      -1.607296    2.545350   -0.683593
H      -1.913729    1.848412    0.920616
H      -0.024823    3.157406    1.874157
H       1.886249    1.907031    0.886976
H       1.530249    2.593773   -0.711382
H      -0.070801    4.588290   -0.821824
H      -2.050245    5.709614    0.193358
H      -1.468485    5.293662    1.817967
H      -0.106360    7.278384   -0.104080
H      -0.092462    7.382980    1.666160
H       1.350346    5.337518    1.793239
H       1.890288    5.770921    0.158787
