17

C      -0.353235    1.317655    0.053297
O       0.247844    0.047999   -0.054002
C       0.541187   -0.523969    1.199132
C       1.180771   -1.882307    0.929730
C       1.542903   -2.600297    2.181993
N       1.376515   -2.219051    3.415663
C       1.896333   -3.282923    4.111737
N       2.356186   -4.258337    3.380479
O       2.120018   -3.804816    2.074717
H       0.301758    2.036393    0.570021
H      -0.541044    1.675840   -0.961463
H      -1.309063    1.271387    0.598137
H       1.227734    0.114245    1.776929
H      -0.370371   -0.643843    1.805052
H       0.495319   -2.502734    0.341122
H       2.077800   -1.752599    0.313584
H       1.932293   -3.326912    5.190558
