15

O       0.118017    0.020708    0.110079
C       0.020873    1.204969    0.054107
C      -1.072451    2.269738   -0.050761
C      -0.689284    3.020618    1.292832
O       0.793456    3.015164    1.300122
C       0.980267    2.447814    0.021473
C       1.952847    2.393779   -1.146281
O       0.753885    2.419779   -2.010361
C      -0.037020    3.029703   -0.939315
H      -2.133589    2.103644   -0.229776
H      -1.035056    4.059184    1.312085
H      -1.057799    2.488332    2.172356
H       2.567103    3.287164   -1.301541
H       2.535187    1.480277   -1.284788
H      -0.169876    4.104319   -1.079523
