16

O      -0.045001    1.469593    0.146032
C      -0.000618    0.057264    0.016712
C       0.790740   -0.575726    1.164303
O       0.619561   -1.994524    1.220037
C      -0.658569   -2.458978    1.355398
O      -0.876759   -3.460702    1.970058
N      -1.674485   -1.760360    0.659789
C      -2.244791   -0.535709    1.242622
C      -1.412389   -0.475799    0.009960
H       0.805994    1.828329   -0.125882
H       0.467958   -0.235356   -0.934079
H       1.863648   -0.411290    1.038994
H       0.490658   -0.117210    2.114637
H      -3.324599   -0.452360    1.169850
H      -1.821658   -0.168218    2.172802
H      -1.935114   -0.366768   -0.937267
