19

O      -0.384145    0.913463    0.490202
C       0.044869   -0.339031   -0.064494
C       0.839571   -1.180204    0.984011
C      -0.199123   -1.994542    1.736632
C      -1.423739   -1.285600    2.264007
C      -1.479402   -1.987731    0.928764
C      -1.247127   -1.163534   -0.327347
C       0.827280   -0.092726   -1.279084
C       1.489671    0.130439   -2.257648
H       0.400214    1.460740    0.608465
H       1.532177   -1.850673    0.464552
H       1.438959   -0.517696    1.618704
H       0.137013   -2.891495    2.245007
H      -1.944388   -1.762590    3.087647
H      -1.432868   -0.202827    2.280839
H      -2.088320   -2.880421    0.838922
H      -2.062463   -0.479173   -0.577548
H      -1.087335   -1.826401   -1.182851
H       2.064940    0.324586   -3.129070
