15

C      -0.006464    1.488787   -0.017028
C       0.039665   -0.009656   -0.085537
C       0.559670   -0.953532   -1.197050
C       0.071844   -1.940199   -0.114485
C       0.508641   -0.994030    1.042718
O      -0.781995   -1.018117    1.723949
C      -1.105905   -1.009817    0.300781
H       0.997017    1.921731   -0.090992
H      -0.610608    1.906026   -0.829928
H      -0.446889    1.804804    0.934447
H       0.005430   -0.948821   -2.140487
H       1.636341   -0.932877   -1.391029
H       0.075893   -3.029332   -0.100121
H       1.419035   -0.990900    1.642736
H      -2.154044   -1.025840    0.000789
