19

O      -0.059137    1.487785   -0.042433
C       0.057966    0.071683   -0.070683
C      -1.359801   -0.498230   -0.007887
C      -2.195062   -0.200580   -1.237955
C      -2.854083   -1.264658   -1.697231
C      -2.567483   -2.494000   -0.877879
O      -1.666530   -3.434858   -1.522109
C      -0.553240   -2.947229   -0.745422
C      -1.466404   -2.033818    0.112468
H       0.814272    1.866134   -0.178239
H       0.564384   -0.262412   -0.988127
H       0.643630   -0.296823    0.787294
H      -1.823998   -0.028431    0.871165
H      -2.229499    0.796985   -1.661154
H      -3.511007   -1.278834   -2.559633
H      -3.460560   -3.008656   -0.505527
H      -0.054116   -3.759703   -0.204821
H       0.187670   -2.433343   -1.370285
H      -1.568578   -2.376716    1.142239
