21

C       0.227355    1.523555    0.117373
C       0.156593   -0.011333    0.116820
C       0.624511   -0.578897    1.463458
C      -1.255160   -0.458399   -0.265012
C      -1.631585   -1.956040   -0.239603
C      -2.685885   -1.535641    0.819173
O      -2.239479   -0.157290    0.763407
C      -4.084717   -1.706608    0.458646
C      -5.238207   -1.863251    0.158494
H       1.235101    1.871079    0.365015
H      -0.041047    1.936077   -0.860926
H      -0.465570    1.937197    0.857390
H       0.819342   -0.389326   -0.676255
H       1.631652   -0.222412    1.699820
H      -0.045745   -0.256550    2.265771
H       0.657811   -1.672946    1.465948
H      -1.539976    0.032337   -1.206035
H      -2.046583   -2.349960   -1.166714
H      -0.863759   -2.633504    0.134584
H      -2.510205   -1.953890    1.818350
H      -6.259214   -1.995423   -0.102358
