19

C       0.290358    1.442192   -0.028353
C       0.039103   -0.054263   -0.012139
C      -1.441358   -0.426856    0.044548
O       0.659721   -0.637610   -1.161912
C       1.167216   -1.887582   -0.777572
C       2.481532   -1.877427   -0.001145
O       3.267299   -0.741490    0.087247
C       1.154730   -1.915367    0.727626
O       0.732453   -0.627087    1.118405
H       1.359754    1.634338   -0.138200
H      -0.232132    1.899841   -0.871814
H      -0.069650    1.896688    0.897758
H      -1.960426   -0.041722   -0.837002
H      -1.555560   -1.513991    0.066685
H      -1.905858   -0.008928    0.941691
H       0.881677   -2.723160   -1.407978
H       3.061796   -2.796187   -0.034028
H       2.788234   -0.130563    0.664220
H       0.815677   -2.732151    1.355811
