21

C      -0.057907    1.556747   -0.135202
C       1.489287    1.537296    0.018887
C       1.371928    0.098696    0.580938
C      -0.075182    0.013826    0.054598
C       2.490792   -0.974936    0.410548
C       3.180563   -0.306524    1.641282
C       1.702932   -0.161201    2.074395
O       1.272466   -1.517874    2.272328
C       1.813176   -2.167907    1.095206
H      -0.547359    2.079716    0.690479
H      -0.455641    1.947763   -1.074035
H       2.002549    1.561878   -0.948026
H       1.937189    2.299388    0.662844
H      -0.815489   -0.407806    0.738562
H      -0.138830   -0.521636   -0.898935
H       2.998441   -1.150108   -0.538343
H       3.823892   -0.923658    2.273273
H       3.663238    0.640047    1.397111
H       1.354729    0.459756    2.899460
H       1.001167   -2.607944    0.504494
H       2.510451   -2.960691    1.390776
