21

C       0.355400    1.685499   -0.673334
C       0.410580    0.193131   -0.426749
C       1.672106   -0.607513   -0.432789
O       2.758724    0.126285    0.145126
C       2.115690    0.061983    1.458189
C       2.117323    1.359916    2.243883
C       3.530663    1.852148    2.536502
O       3.423690    3.030538    3.322147
C       0.851404   -0.533204    0.840456
H       1.325638    2.147021   -0.481461
H       0.096107    1.881777   -1.719346
H      -0.396135    2.176955   -0.046704
H      -0.408349   -0.362356   -0.883036
H       1.920871   -1.423501   -1.102349
H       2.633118   -0.714642    2.041485
H       1.567795    2.144214    1.719402
H       1.599797    1.184371    3.195647
H       4.095122    1.068039    3.068703
H       4.053058    2.044704    1.587992
H       4.307897    3.386254    3.449060
H       0.232946   -1.284118    1.314411
