23

C      -0.102338    1.594004   -0.212490
C       0.073563    0.093978    0.071260
C       0.773512   -0.137233    1.417366
C      -1.277611   -0.599438    0.021118
C      -1.920281   -1.129297   -1.216834
O      -0.960507   -1.723824   -2.099331
C      -0.738288   -2.805985   -1.144393
C       0.713332   -3.190234   -0.937376
C      -1.584359   -2.089560   -0.088982
H       0.864077    2.108711   -0.219723
H      -0.580651    1.759073   -1.182867
H      -0.725372    2.069794    0.554894
H       0.693340   -0.319901   -0.729699
H       0.179668    0.273383    2.242983
H       0.919151   -1.203703    1.615407
H       1.754076    0.350229    1.441779
H      -2.017237   -0.133407    0.675315
H      -2.862126   -0.807289   -1.647675
H      -1.292935   -3.685484   -1.502026
H       1.312931   -2.372716   -0.535288
H       0.771805   -4.035362   -0.242586
H       1.154300   -3.507647   -1.888218
H      -2.239910   -2.591525    0.610775
