25

C       0.126442    1.560872   -0.141236
C       0.038060    0.038535   -0.009448
C      -1.401687   -0.487458    0.016114
O      -2.114398   -0.082423   -1.169007
C      -1.462589   -2.007288    0.221660
C      -2.877763   -2.635248    0.283364
C      -2.752430   -4.151814    0.454965
C      -3.718038   -2.044167    1.429751
O      -3.557928   -2.447695   -0.957807
H       1.167059    1.891964   -0.205636
H      -0.400642    1.904132   -1.035181
H      -0.329522    2.057072    0.722544
H       0.572360   -0.443769   -0.841404
H       0.545035   -0.291399    0.905629
H      -1.941147    0.016843    0.826302
H      -1.660767   -0.477379   -1.924039
H      -0.914945   -2.494105   -0.597736
H      -0.922084   -2.248745    1.145549
H      -2.282494   -4.406848    1.409800
H      -3.744611   -4.610909    0.421441
H      -2.154560   -4.579404   -0.355312
H      -3.904417   -0.976322    1.279513
H      -4.689247   -2.545389    1.465889
H      -3.226925   -2.171353    2.400991
H      -3.479378   -1.506291   -1.167954
