17

C      -0.043794    1.480008    0.024683
N       0.117909    0.043408   -0.103798
C       0.740994   -0.620757    0.785131
C       0.900146   -2.108462    0.603396
C       0.016081   -2.624054   -0.520415
O       0.412359   -3.333038   -1.407262
N       1.313734   -0.025576    1.926341
C       1.991115   -0.604062    2.981676
O       2.215985   -1.778246    3.138483
H       0.920265    2.011685    0.006833
H      -0.632968    1.849763   -0.817024
H      -0.572197    1.767256    0.947190
H       1.942666   -2.365321    0.393072
H       0.641311   -2.633138    1.530366
H      -1.050920   -2.333578   -0.437673
H       1.222955    0.978237    1.980916
H       2.317260    0.172191    3.701124
