13

N       0.052200    1.389443    0.165960
C       0.011939    0.000631    0.048963
C      -1.089829   -0.824216    0.028835
N      -0.635414   -2.132243   -0.017541
C       0.715892   -2.167427   -0.027130
C       1.167423   -0.854820    0.010664
C       2.507952   -0.412403   -0.002258
N       3.592609   -0.001263   -0.020587
H       0.922589    1.790059   -0.158340
H      -0.733334    1.862374   -0.258302
H      -2.142282   -0.597666    0.053398
H      -1.229767   -2.941927   -0.039597
H       1.269390   -3.090471   -0.066180
