18

C       0.126291    1.506810   -0.014795
C      -0.020977   -0.011914    0.032310
C      -1.489439   -0.454757    0.014225
O       0.670264   -0.533691   -1.122867
C       1.336050   -1.749997   -0.811314
C       1.543283   -1.727674    0.685926
O       2.125065   -0.502267    1.147645
C       0.704003   -0.651572    1.210323
H       1.182533    1.776112    0.049117
H      -0.278818    1.893276   -0.954263
H      -0.413000    1.977751    0.813147
H      -1.974269   -0.092195   -0.896195
H      -1.573388   -1.546058    0.034037
H      -2.033644   -0.055682    0.876773
H       0.736612   -2.633517   -1.086519
H       2.271706   -1.778220   -1.380436
H       1.802497   -2.626892    1.238024
H       0.259827   -0.652028    2.202384
