15

N      -0.471698    0.929921    0.857230
C      -0.183199   -0.059441    0.097619
N      -1.108030   -0.648665   -0.714601
C      -2.471544   -0.166535   -0.793059
C      -3.315566   -0.578201    0.438217
C      -4.700104   -0.136341    0.308437
N      -5.791559    0.219034    0.175810
C       1.142896   -0.653167    0.011468
N       2.207097   -1.103240   -0.027190
H       0.342567    1.258452    1.368546
H      -0.834593   -1.455708   -1.247729
H      -2.457164    0.924515   -0.863051
H      -2.920179   -0.563528   -1.706095
H      -3.297374   -1.666490    0.560203
H      -2.873062   -0.132991    1.334049
