15

O      -0.574308    0.782148    0.823312
C       0.282999    0.736532   -0.017902
C       1.464996    1.691476   -0.063863
O       2.647722    0.996098   -0.542904
C       3.017032    1.739050   -1.719437
C       2.834757    3.213467   -1.271300
C       1.327314    2.792026   -1.139192
C       1.647003    1.946713   -2.407998
O       1.136694    1.736688   -3.462837
H       0.276092   -0.013582   -0.839520
H       1.637976    2.093323    0.939990
H       3.908839    1.321650   -2.177293
H       3.345556    3.490300   -0.347612
H       3.007212    3.941989   -2.065348
H       0.498003    3.489864   -1.066602
