19

C       0.047865    1.508972   -0.146655
C       0.019691   -0.017681   -0.009607
C       0.854572   -0.489566    1.186655
C      -1.450514   -0.509988    0.093233
O      -2.267895   -0.019037   -0.962798
C      -1.526697   -1.970996    0.172292
C      -1.587623   -3.178529    0.156143
C      -1.659908   -4.616807    0.185058
O      -1.943742   -5.306527   -0.767239
H       1.072044    1.858523   -0.308169
H      -0.571907    1.842409   -0.980938
H      -0.328307    1.988249    0.765092
H       0.437233   -0.461563   -0.924472
H       0.876894   -1.579635    1.264346
H       1.885621   -0.135503    1.094482
H       0.451657   -0.090996    2.125472
H      -1.886228   -0.083694    1.006887
H      -2.039747   -0.506339   -1.762860
H      -1.428487   -5.061398    1.174311
