18

C      -0.089456    1.509260    0.020012
C      -0.029836    0.007652    0.040005
C       1.139077   -0.784251   -0.647186
O       2.070894   -0.399701    0.408539
C       0.835752   -0.755028    1.117311
C       0.601694   -1.989340    0.207149
C      -0.875383   -2.104956   -0.085838
C      -1.829881   -1.463425    0.858088
N      -1.287905   -0.689316   -0.274321
H       0.907503    1.918534    0.201571
H      -0.456426    1.867501   -0.946283
H      -0.769428    1.881540    0.793546
H       1.489987   -0.758343   -1.679518
H       0.848834   -0.680556    2.204863
H       1.225097   -2.871995    0.333811
H      -1.226455   -2.822153   -0.822053
H      -2.888521   -1.691477    0.775319
H      -1.498278   -1.222340    1.864636
