20

C      -0.078601    1.633678    0.043080
C       0.120670    0.123812   -0.007681
C       0.880211   -0.578368   -1.124593
C       2.317310   -0.740650   -0.748493
N       1.286667   -1.714252   -0.229978
C       1.095153   -0.653901    0.908321
C       2.549751   -0.173821    0.634737
C       3.572202   -0.982908    1.429795
O       2.859790    1.206297    0.675999
H       0.859201    2.171228   -0.090633
H      -0.781281    1.944532   -0.738254
H      -0.510697    1.932056    1.005274
H      -0.851062   -0.378607    0.075100
H       0.547046   -0.766320   -2.140141
H       3.070904   -1.051667   -1.464268
H       0.798285   -0.985233    1.903601
H       3.357527   -2.052495    1.372930
H       4.580756   -0.803950    1.043696
H       3.553447   -0.689314    2.487185
H       3.171324    1.423241    1.560830
