23

C      -0.871824    1.085289   -0.003755
C      -0.383294   -0.357552    0.010118
C       0.844136   -0.594421   -0.960179
C       1.696864   -0.586486    0.283240
C       2.752994   -0.051041    0.883286
C       2.525508   -0.034386    2.388927
C       0.974643   -0.258020    2.573667
C       0.273417    1.027763    3.021940
C       0.549444   -0.868701    1.202383
H      -0.045226    1.791107    0.125186
H      -1.344712    1.305896   -0.967480
H      -1.609326    1.277895    0.780134
H      -1.226355   -1.029687   -0.175806
H       0.792951   -1.572797   -1.449279
H       1.037473    0.169306   -1.719019
H       3.631021    0.379128    0.414563
H       3.103816   -0.816581    2.900214
H       2.844980    0.916356    2.834755
H       0.807965   -1.005898    3.356091
H       0.467350    1.858538    2.338044
H      -0.810598    0.894979    3.095450
H       0.638773    1.325552    4.010905
H       0.350627   -1.942258    1.316989
