23

C       0.346722    1.559059   -0.158309
C       0.123330    0.078035    0.064660
O       0.929193   -0.763000   -0.805714
C       1.267574   -1.658202    0.290406
C       0.828600   -3.075633    0.024547
C       2.689393   -1.373438    0.854384
C       3.778487   -0.965648   -0.125927
C       2.072870   -0.281458    1.789437
C       0.642610   -0.658798    1.313738
H       1.390151    1.844109   -0.002600
H       0.075385    1.824097   -1.185299
H      -0.282057    2.145584    0.520544
H      -0.941932   -0.150599   -0.096475
H       1.382155   -3.489775   -0.826211
H       1.015430   -3.713251    0.894757
H      -0.237978   -3.118246   -0.216881
H       3.021112   -2.232867    1.448692
H       3.418593   -0.173007   -0.787108
H       4.665754   -0.603093    0.404455
H       4.087866   -1.808692   -0.753766
H       2.243231   -0.457840    2.853813
H       2.382240    0.743143    1.567277
H      -0.085571   -0.936138    2.075904
