15

O      -0.086759    1.359021    0.060558
C       0.061708   -0.002603    0.041940
C      -0.214292   -0.858422   -1.212082
C       0.466093   -2.218756   -1.026106
C       0.002287   -2.117657    0.453016
O      -0.157819   -3.195917    1.281849
C      -1.085424   -1.024258   -0.006123
C       0.785924   -0.898576    1.008544
O       1.475330   -0.727793    1.971154
H       0.676239    1.759934   -0.370654
H      -0.462692   -0.346869   -2.133402
H      -0.074581   -3.004931   -1.566347
H       1.542475   -2.312394   -1.208837
H      -0.572990   -3.911951    0.788822
H      -2.128730   -0.861850    0.215555
