19

C      -0.037221    1.497191    0.010843
C      -0.019691   -0.022013    0.002003
O      -1.352755   -0.487286    0.012270
C      -1.451487   -1.894114    0.005725
C      -2.895700   -2.276721    0.016526
C      -3.989168   -1.452646    0.027277
N      -5.077923   -2.300159    0.034168
C      -4.598386   -3.574565    0.026921
N      -3.285644   -3.598063    0.016254
H       0.983594    1.890774    0.003107
H      -0.563681    1.879495   -0.868358
H      -0.546365    1.869379    0.904460
H       0.507666   -0.398064   -0.891380
H       0.524813   -0.408161    0.880668
H      -0.954252   -2.317671   -0.884281
H      -0.938663   -2.327213    0.882157
H      -4.085618   -0.381537    0.030841
H      -6.045017   -2.024186    0.042962
H      -5.248702   -4.436659    0.030033
