15

O       0.017015    0.022400    0.185203
C       0.003550    1.212311    0.029594
C      -1.254499    2.087913   -0.167924
N      -0.822675    3.365390   -0.753278
C       0.597338    3.490621   -0.525223
C       1.077027    3.371884    0.866344
C       1.194613    2.133726   -0.052439
C       2.479365    1.635808   -0.419049
N       3.526674    1.253225   -0.729042
H      -1.970706    1.569771   -0.807859
H      -1.740565    2.233571    0.805103
H      -0.991574    3.351344   -1.752535
H       1.142534    4.107296   -1.228412
H       2.023438    3.837708    1.112115
H       0.365731    3.324661    1.683674
