23

C      -0.201148    1.596362    0.064850
C       0.013135    0.074983    0.034928
C      -1.342285   -0.631200   -0.078696
O       0.724820   -0.289631   -1.164819
C       2.141846   -0.385923   -1.077082
C       2.604366   -0.874284    0.300114
C       1.491508   -1.780593    0.896091
C       0.785282   -0.442982    1.270721
C       2.205251    0.182249    1.359100
H       0.742433    2.142271   -0.002004
H      -0.822498    1.898832   -0.782955
H      -0.705985    1.904016    0.987200
H      -1.810249   -0.380563   -1.034764
H      -1.227489   -1.717097   -0.030851
H      -2.011427   -0.315962    0.728035
H       2.434297   -1.094391   -1.861035
H       2.619762    0.580769   -1.309191
H       3.637341   -1.229784    0.266089
H       0.975964   -2.468564    0.222706
H       1.836140   -2.316807    1.783460
H       0.148279   -0.409490    2.158308
H       2.665303   -0.017519    2.330839
H       2.342975    1.237921    1.111424
