21

C      -0.224558    1.596451   -0.116854
C       0.011058    0.093188   -0.029694
C       1.026224   -0.591600   -1.059266
C       1.944023   -0.853997    0.148278
C       2.658071   -1.747753    1.208260
C       2.092173   -0.459995    1.994755
C       2.652390    0.364647    0.825888
C       0.789490   -0.652241    1.148708
O      -0.059170   -1.715432    1.534373
H       0.691910    2.177579   -0.242207
H      -0.866052    1.822073   -0.976667
H      -0.736299    1.961544    0.779891
H      -0.962815   -0.399514   -0.069873
H       0.592657   -1.491169   -1.502392
H       1.434713    0.039526   -1.854039
H       2.199587   -2.714663    1.422145
H       3.748780   -1.831590    1.173067
H       2.218026   -0.259657    3.066013
H       3.740564    0.378736    0.724569
H       2.236831    1.359354    0.682449
H       0.341874   -2.176470    2.276695
