21

C      -0.070952    1.594039    0.085272
C       1.474442    1.454020   -0.022234
C       1.801942    0.814339    1.339033
C       0.746004   -0.356046    1.316076
C       1.405294   -1.699853    1.126687
C       2.077879   -1.956631    0.005263
C       2.180924   -0.942101   -1.107484
C       1.190770    0.222305   -0.948282
C      -0.015747    0.047619    0.023346
H      -0.477086    2.063387    0.986799
H      -0.526815    2.032740   -0.805863
H       2.107744    2.279437   -0.352020
H       2.824736    0.437257    1.411003
H       1.639414    1.515222    2.163979
H       0.101788   -0.347475    2.198287
H       1.334408   -2.440512    1.918089
H       2.568041   -2.914867   -0.146708
H       3.209179   -0.554737   -1.175071
H       2.005704   -1.446898   -2.067160
H       0.853161    0.574271   -1.927130
H      -0.881896   -0.562605   -0.234607
