16

C       0.081105    1.435898    0.037056
N      -0.022187   -0.001575   -0.029172
C      -1.142165   -0.609484   -0.071766
C      -2.488114   -0.010165   -0.062735
N      -3.593729   -0.655354   -0.106846
O      -3.490498   -2.051972   -0.169058
C      -2.250326   -2.622277   -0.177659
C      -2.362760   -4.111945   -0.246266
N      -1.133139   -2.011299   -0.134720
H       0.682188    1.782862   -0.811977
H      -0.857838    2.006649    0.040431
H       0.641724    1.705500    0.940257
H      -2.628914    1.064186   -0.015261
H      -2.904544   -4.409020   -1.149576
H      -1.363673   -4.545151   -0.252233
H      -2.928358   -4.488315    0.611761
