21

C      -0.080123    1.434096    0.018284
N      -0.012185   -0.010231    0.016584
C       0.035060   -0.797715   -1.115185
N      -0.014329   -0.193102   -2.392521
C       0.059107   -2.112820   -0.715937
C       0.031666   -2.137268    0.711296
C       0.042014   -3.373509    1.560499
C       0.000561   -0.825167    1.139530
C      -0.018054   -0.242788    2.514398
H       0.873667    1.891848    0.310074
H      -0.335215    1.762118   -0.990483
H      -0.852103    1.783121    0.710502
H       0.903881    0.092203   -2.723081
H      -0.391132   -0.842664   -3.072027
H       0.104427   -2.968991   -1.373508
H       0.885976   -4.027741    1.310430
H       0.119356   -3.138077    2.625772
H      -0.870161   -3.968533    1.426126
H       0.823528    0.439921    2.691362
H      -0.936553    0.322144    2.723879
H       0.046529   -1.038073    3.259857
