20

C       0.074608    1.485986   -0.335895
N       0.054773    0.058479   -0.011235
C      -1.042213   -0.484753    0.865226
C      -0.128476   -1.716343    1.135327
C      -0.393735   -2.286146    2.523591
C      -0.577092   -0.968762    3.318880
C      -0.375462    0.055710    2.199449
O      -0.399470    1.397599    2.582160
C       0.753011   -0.430647    1.229610
H       1.059730    1.726181   -0.751528
H      -0.661319    1.662263   -1.128859
H      -0.130880    2.166808    0.495839
H      -2.093221   -0.478550    0.564460
H       0.063670   -2.376045    0.292478
H      -1.283919   -2.922271    2.543887
H       0.444910   -2.885308    2.890806
H      -1.571371   -0.877978    3.773412
H       0.161926   -0.834112    4.114956
H      -1.172512    1.536512    3.140068
H       1.835280   -0.361304    1.362804
