20

C       0.074184    1.549810    0.115541
C      -0.013137    0.037777   -0.112872
C       0.887262   -0.490964   -1.245793
C       2.381401   -0.271102   -0.965438
C       0.590325   -1.978282   -1.489018
C       1.115870   -2.523778   -2.796037
O       1.641561   -1.884938   -3.671897
C       0.915915   -3.984029   -2.970941
N       0.755235   -5.122692   -3.092549
H       1.067547    1.858022    0.453998
H      -0.151272    2.101680   -0.803788
H      -0.643857    1.867184    0.877701
H       0.234275   -0.489605    0.819061
H      -1.054341   -0.224890   -0.341707
H       0.630763    0.047587   -2.167205
H       2.682191   -0.773961   -0.037980
H       2.996645   -0.659095   -1.780760
H       2.614032    0.791244   -0.857937
H       0.983605   -2.608268   -0.678059
H      -0.492980   -2.173300   -1.493223
