27

C      -0.029666    1.694278   -0.283975
C       0.026494    0.188508   -0.002247
C      -1.363021   -0.454788    0.039389
C      -1.999894   -0.652570   -1.370057
C      -1.569403   -2.141338   -1.330183
C      -1.409688   -2.015511    0.210525
C      -0.297969   -2.780753    0.929801
C      -0.309081   -2.492654    2.438217
C      -0.419351   -4.289115    0.666283
H       0.973826    2.129847   -0.320978
H      -0.518608    1.905821   -1.240697
H      -0.592632    2.218957    0.496191
H       0.643916   -0.301258   -0.766851
H       0.540908    0.024584    0.952516
H      -1.982763    0.098028    0.754314
H      -3.087329   -0.539300   -1.352235
H      -1.604343   -0.037989   -2.183620
H      -2.273597   -2.885831   -1.709790
H      -0.605606   -2.299930   -1.825405
H      -2.366035   -2.277512    0.683598
H       0.667586   -2.448737    0.523765
H      -1.244275   -2.843258    2.891767
H       0.516085   -3.003599    2.945823
H      -0.221022   -1.422688    2.650724
H       0.386591   -4.842520    1.159956
H      -1.371013   -4.677548    1.049096
H      -0.374455   -4.515669   -0.403554
