18

N       0.115595    1.433141    0.025865
C       0.034611   -0.024732    0.005130
C       0.457592   -0.633575    1.398304
C      -0.875060   -1.305953    1.759279
C      -1.245415   -2.070624    0.461026
C      -1.417301   -0.612832   -0.024361
N      -1.842852   -0.203779    1.365853
C       0.836803   -0.536898   -1.109939
N       1.441248   -0.956826   -2.001029
H      -0.166463    1.811438   -0.874902
H      -0.564888    1.751432    0.713403
H       1.286260   -1.338985    1.322195
H       0.730935    0.170654    2.082430
H      -0.972413   -1.736289    2.755470
H      -0.501089   -2.713253   -0.019044
H      -2.203675   -2.589774    0.541200
H      -2.039895   -0.317367   -0.869240
H      -2.790047   -0.554770    1.509255
