15

O       0.103941    1.404776    0.104903
C       0.127417    0.003337   -0.118986
C      -1.315805   -0.492677    0.054530
C      -2.210880    0.087614   -1.041800
O      -2.991315   -0.548317   -1.699956
C      -1.392770   -2.013693    0.100413
O      -0.467195   -2.711655   -0.254438
C      -2.625776   -2.572873    0.614006
C      -3.642847   -3.023868    1.072495
H       0.972553    1.759792   -0.105180
H       0.489216   -0.246503   -1.125753
H       0.775362   -0.517659    0.597919
H      -1.695182   -0.082646    1.002150
H      -2.061825    1.175946   -1.191493
H      -4.540999   -3.435857    1.464755
