19

C      -0.798442    1.334135    0.077355
C       0.102047    0.108375    0.018503
O      -0.677187   -1.103418    0.087210
C       1.013164    0.096111   -1.193872
C       2.006223   -0.791317   -1.276945
C       2.278790   -1.773940   -0.166074
C       1.999499   -1.170972    1.230179
C       1.035378    0.011145    1.242463
O       1.022213    0.824785    2.132842
H      -0.205638    2.252747    0.098846
H      -1.451822    1.359962   -0.801360
H      -1.415792    1.305224    0.976564
H      -0.959449   -1.313981   -0.809480
H       0.823758    0.818534   -1.983069
H       2.633025   -0.832763   -2.163925
H       1.655041   -2.662142   -0.322641
H       3.315924   -2.119490   -0.213865
H       1.588791   -1.930461    1.904189
H       2.923276   -0.815275    1.694819
