18

C      -0.181789    1.537822   -0.024930
C      -0.025229    0.024609    0.009884
C      -1.297506   -0.702068   -0.394485
O       1.096833   -0.394545   -0.821697
C       1.892646   -0.751979    0.317529
C       0.696533   -0.554608    1.283643
C       0.878225    0.275885    2.453048
C       1.038842    0.968880    3.423024
H       0.743706    2.037108    0.271297
H      -0.437547    1.854815   -1.040728
H      -0.976191    1.864784    0.653146
H      -1.603820   -0.398300   -1.400711
H      -1.140750   -1.784328   -0.398502
H      -2.113242   -0.467180    0.297594
H       2.289924   -1.770216    0.245934
H       2.718934   -0.051155    0.487730
H       0.252001   -1.511967    1.570862
H       1.179170    1.578135    4.281329
