16

O       0.043263    1.391073    0.340935
C       0.029514    0.023268   -0.045894
C      -1.354430   -0.541644   -0.103026
C      -1.945097   -1.307323   -1.028809
C      -3.361342   -1.581837   -0.600670
O      -3.699530   -2.951404   -0.541392
C      -3.424115   -0.937950    0.805653
O      -4.333823   -1.047210    1.596122
N      -2.232640   -0.273716    0.970795
H      -0.428837    1.893154   -0.332268
H       0.531253   -0.148874   -1.007509
H       0.611343   -0.496161    0.725496
H      -1.503205   -1.639192   -1.955953
H      -4.069702   -1.032247   -1.247800
H      -4.432786   -3.015105    0.085995
H      -1.967203    0.218821    1.808833
