20

C      -0.637264    1.118988   -0.129254
C       0.715047    0.468441    0.187395
C       1.269088   -0.272140   -1.017834
O       2.637167   -0.779851   -0.886358
C       2.276426   -2.012025   -1.561314
C       1.992841   -3.213363   -0.645338
C       1.449815   -2.770697    0.642345
N       0.520220   -2.805227   -0.513504
C       0.793235   -1.661853   -1.483519
H      -0.553897    1.830768   -0.957682
H      -1.383412    0.367372   -0.407685
H      -1.021122    1.661331    0.739177
H       1.445560    1.236203    0.470902
H       0.605820   -0.198152    1.045810
H       1.236887    0.409688   -1.884057
H       2.843713   -2.184745   -2.477707
H       2.276985   -4.238099   -0.863186
H       1.197737   -3.539579    1.366538
H       1.803385   -1.839165    1.063194
H       0.096809   -1.724369   -2.317902
