15

N       0.112121    1.411683    0.138750
C      -0.030666    0.019143    0.036445
C      -1.191780   -0.686472   -0.012155
N      -1.227706   -2.057059   -0.009807
C      -0.105729   -2.716117    0.011166
N      -0.065226   -4.080663    0.064214
C       1.227773   -2.074855    0.021364
O       2.289349   -2.683687    0.005433
N       1.149783   -0.697697    0.056169
H       0.639703    1.815252   -0.629999
H      -0.788432    1.870616    0.191066
H      -2.145519   -0.172772   -0.053005
H      -0.903293   -4.576287   -0.190645
H       0.825591   -4.494393   -0.163834
H       2.029697   -0.207856    0.149235
