19

C      -0.007634    1.509707   -0.252012
C       1.298384    0.784870   -0.046470
C       2.112277    0.832107    1.244892
C       1.405754    0.144126    2.435061
C       0.211004    0.921999    3.013351
O      -0.890881    0.481699    2.218818
C      -0.392348   -0.530495    1.345966
O       0.755628   -1.050288    1.992940
C      -0.008558    0.020141   -0.027343
H      -0.409839    2.120970    0.546721
H      -0.222434    1.873150   -1.251106
H       1.904990    0.667656   -0.938744
H       3.050064    0.294295    1.070528
H       2.385871    1.858636    1.518894
H       2.130798   -0.132273    3.203066
H       0.032481    0.655920    4.062009
H       0.323944    2.008895    2.935266
H      -1.134951   -1.329032    1.276376
H      -0.239163   -0.635120   -0.860530
