18

O      -0.003753    1.383934   -0.101190
C       0.034311   -0.034515   -0.047668
C      -1.399839   -0.532203    0.067067
C      -2.302381   -0.149970   -1.131587
C      -3.286002   -1.314826   -1.293220
O      -4.398833   -1.261770   -1.751230
C      -2.642295   -2.529265   -0.681657
N      -1.232429   -2.694967   -1.151072
C      -1.496233   -2.055111    0.143652
H       0.887475    1.704556   -0.266240
H       0.489741   -0.463525   -0.952531
H       0.619375   -0.384633    0.819311
H      -1.833176   -0.117142    0.985395
H      -2.836486    0.790913   -0.999486
H      -1.714049   -0.068173   -2.052254
H      -3.239076   -3.402561   -0.447779
H      -0.972101   -3.667482   -1.002381
H      -1.215190   -2.571000    1.056623
