21

C       0.012873    1.779660   -0.022479
C      -0.016270    0.247773    0.078421
C       0.611522   -0.289608    1.381532
C       2.084752    0.012496    1.514160
C       3.047069   -0.987455    1.993667
O       2.955443   -0.670115    0.604101
C      -1.440857   -0.251617   -0.041775
C      -2.006611   -0.730637   -1.308478
O      -1.617791   -1.648912   -0.283759
H       1.036207    2.163948   -0.006296
H      -0.452876    2.119186   -0.953055
H      -0.531362    2.241500    0.810097
H       0.555398   -0.178112   -0.755109
H       0.083853    0.130849    2.249527
H       0.466845   -1.374683    1.407822
H       2.348199    1.061449    1.659530
H       3.964375   -0.668860    2.487405
H       2.691966   -1.979512    2.270214
H      -2.135475    0.155193    0.698444
H      -3.078074   -0.659659   -1.491128
H      -1.383244   -0.739338   -2.201948
