16

C      -0.015935    1.521465   -0.064924
C       1.543719    1.329689   -0.016683
C       1.143826    0.166141    0.962017
N      -0.099242   -0.014086    0.065300
C       0.605335   -0.359854   -1.186742
C       1.659253    0.478792   -1.270133
O       2.394567    0.272032   -2.373621
C       1.756016   -0.767641   -3.024723
C       0.648042   -1.194954   -2.337330
H      -0.439343    1.998960    0.824140
H      -0.460286    1.921283   -0.977834
H       2.258387    2.117251    0.215621
H       1.791592   -0.710314    1.016157
H       0.843709    0.499558    1.960252
H       2.214637   -1.075292   -3.948763
H      -0.013501   -1.990934   -2.640809
