19

O       0.112964    1.567857   -0.083543
C       0.037624    0.172516   -0.010810
C       0.203174   -0.584477    1.342881
C      -0.914298    0.031865    2.203686
C      -2.076047    0.039618    1.148775
C      -1.331201   -0.574256   -0.050380
C      -0.567168   -1.761483    0.641055
C       0.214284   -2.619272   -0.225806
C       0.852690   -3.352271   -0.934622
H      -0.478530    1.952684    0.570575
H       0.722572   -0.208859   -0.767927
H       1.177502   -0.744311    1.802764
H      -1.146771   -0.576783    3.081176
H      -0.653676    1.032330    2.564534
H      -2.931549   -0.564870    1.460535
H      -2.452955    1.044337    0.930724
H      -1.883793   -0.723920   -0.976986
H      -1.182487   -2.366941    1.314251
H       1.417572   -3.995413   -1.562717
