19

C      -0.058724    1.561987    0.174029
C       0.075508    0.075922    0.051186
N      -0.869337   -0.873750    0.685187
C       0.585584   -0.954772    0.984957
C       1.297905   -1.689069   -0.190347
N       0.281606   -2.064858   -1.214147
C       0.792843   -0.678004   -1.141114
C       1.457566    0.000621   -2.308174
O       2.220060   -0.908999   -3.093785
H       0.869357    2.075170   -0.101600
H      -0.857792    1.949164   -0.469706
H      -0.296338    1.842623    1.206056
H      -1.289239   -0.370745    1.469223
H       0.963805   -0.856132    1.994743
H       2.261460   -2.179345   -0.147011
H       0.831428   -2.500545   -1.958516
H       0.706055    0.519220   -2.922691
H       2.156521    0.765090   -1.947644
H       1.645423   -1.262778   -3.778449
