23

C       0.132568    1.524216   -0.020353
C      -0.044861    0.004376    0.050042
C      -1.496211   -0.481021   -0.122177
C      -2.075524   -0.131817   -1.500818
C      -1.577735   -1.992576    0.137722
C      -2.991540   -2.507579    0.320957
O      -3.964325   -1.836827    0.563744
O      -3.029992   -3.852220    0.205532
C      -4.316205   -4.448386    0.412480
H       1.170339    1.804614    0.185456
H      -0.124084    1.922988   -1.006300
H      -0.500749    2.029421    0.717586
H       0.588794   -0.474499   -0.709879
H       0.328427   -0.349568    1.020028
H      -2.116238    0.010259    0.638380
H      -1.479469   -0.586732   -2.302006
H      -3.103779   -0.491069   -1.591075
H      -2.089831    0.948256   -1.669249
H      -1.097931   -2.565797   -0.663791
H      -1.032333   -2.253128    1.055039
H      -4.170735   -5.521176    0.284592
H      -4.687024   -4.229817    1.417273
H      -5.038799   -4.070811   -0.315480
