15

C      -0.032695    1.405770    0.253752
N      -0.007421   -0.055404    0.135811
C      -1.234136   -0.705833   -0.034593
N      -2.313804   -0.057317   -0.129675
O      -1.150868   -2.064427   -0.114686
C       0.034091   -2.601036    0.426675
O       1.169629   -2.024572   -0.175688
C       1.218487   -0.664948   -0.128030
O       2.245859   -0.073568   -0.303124
H       0.974529    1.735508    0.497487
H      -0.356871    1.862455   -0.684789
H      -0.738706    1.685042    1.035488
H      -3.102016   -0.696889   -0.206034
H       0.062047   -2.437593    1.512379
H       0.045699   -3.663403    0.188613
