14

O      -0.074045   -0.021076   -0.000972
C      -0.004983    1.183574    0.008376
C       1.275644    1.942452    0.000721
C       1.238986    3.307890    0.013054
C       2.451624    4.110526    0.006447
O       2.524890    5.326669    0.016713
N       3.619556    3.321952   -0.013169
C       3.659573    1.958874   -0.025488
C       2.513880    1.231803   -0.019214
H      -0.916487    1.819090    0.024060
H       0.301076    3.852385    0.028282
H       4.477701    3.856405   -0.017904
H       4.647485    1.514243   -0.040241
H       2.518891    0.151627   -0.028662
