15

C      -0.047307    1.472940   -0.080227
O       1.217035    2.105815    0.046710
C       2.006732    2.142980   -1.116602
C       2.470667    0.823479   -1.664966
C       2.038672   -0.410282   -1.366425
C       0.935223   -0.813129   -0.499258
C       0.001873   -0.025986    0.051029
H      -0.666981    1.890861    0.720272
H      -0.522572    1.757612   -1.034535
H       1.503832    2.713459   -1.920283
H       2.889671    2.733012   -0.836904
H       3.283230    0.918293   -2.383977
H       2.553340   -1.236242   -1.852676
H       0.858533   -1.883741   -0.324270
H      -0.783209   -0.481048    0.649609
