20

C      -0.108783    1.527012    0.071965
C       0.046954   -0.011030    0.040544
C       0.739065   -0.466678   -1.223278
C       1.921878   -1.078918   -1.256470
C       2.734983   -1.387225   -0.027251
C       2.283565   -0.553225    1.189399
C       0.780270   -0.521432    1.264121
N       0.054048   -0.896971    2.244532
O       0.808927   -1.337988    3.348325
H       0.866140    2.023408    0.106419
H      -0.628248    1.878126   -0.825787
H      -0.686747    1.833927    0.947947
H      -0.962548   -0.439040    0.065986
H       0.207679   -0.263711   -2.150762
H       2.337941   -1.389770   -2.211936
H       2.656924   -2.458165    0.208103
H       3.798453   -1.205021   -0.223796
H       2.707222   -0.939459    2.115326
H       2.645129    0.475094    1.059456
H       0.118218   -1.593748    3.967947
