18

O      -0.138842    1.337759    0.010733
N       0.010320   -0.063489   -0.011702
C      -1.120880   -0.639646   -0.001473
C      -2.521250   -0.045717    0.050975
C      -3.361788   -1.340202    0.049816
C      -2.518508   -2.291667    0.914754
C      -1.285374   -2.143373   -0.014269
C      -1.955196   -2.495603   -1.362550
O      -3.274128   -1.926876   -1.259232
H       0.776203    1.638195    0.016012
H      -2.660574    0.554174    0.957691
H      -2.736065    0.593288   -0.809343
H      -4.415432   -1.220699    0.300711
H      -2.342803   -1.927982    1.929760
H      -2.921676   -3.306529    0.943998
H      -0.385428   -2.711017    0.213852
H      -1.430022   -2.066627   -2.222534
H      -2.031641   -3.582187   -1.501838
