22

C       0.117366    1.570578   -0.213612
C       0.123464    0.063960   -0.057030
C       1.412423   -0.718282   -0.052960
C       0.576780   -0.637411    1.206008
C       1.049446    0.125002    2.430319
N       1.778064   -0.700870    3.380844
C       3.086708   -1.212655    3.011715
C       1.268198   -0.979427    4.614454
O       1.804728   -1.654028    5.468825
H       0.996156    2.037525    0.240397
H       0.117133    1.844791   -1.274100
H      -0.771708    2.019155    0.243548
H      -0.709807   -0.423346   -0.557011
H       1.464310   -1.660416   -0.587521
H       2.336274   -0.146690   -0.074083
H       0.019752   -1.534693    1.464506
H       1.684284    0.969385    2.131970
H       0.188218    0.547174    2.961208
H       3.750353   -0.389919    2.718205
H       3.499315   -1.722709    3.882233
H       3.019028   -1.915801    2.175451
H       0.276581   -0.506579    4.760554
