13

O      -0.097825    0.036540    0.003258
C      -0.037449    1.235981    0.008910
C       1.328254    1.966391   -0.001393
O       2.360729    1.334823   -0.016103
C       1.303124    3.437943    0.007699
N       0.147874    4.120312    0.024119
N       0.521851    5.399419    0.027903
C       1.874013    5.569490    0.014468
C       2.420019    4.310448    0.001028
H      -0.935984    1.881345    0.021892
H      -0.187650    6.114572    0.039807
H       2.317886    6.552078    0.015662
H       3.459749    4.031841   -0.011755
