16

O       0.186893    0.050017   -0.775587
C       0.059780    1.150696   -0.291575
C      -1.288005    1.785772    0.003773
C      -1.570691    3.070319   -0.790660
O      -0.462437    3.946596   -0.868892
C       0.219280    4.168586    0.341428
C       1.347222    3.162536    0.597619
O       2.375324    3.494190    1.141553
N       1.188740    1.865750    0.115040
H      -2.050304    1.039233   -0.225811
H      -1.338308    1.989573    1.079378
H      -1.817721    2.826022   -1.827229
H      -2.438394    3.581034   -0.344939
H       0.711470    5.141219    0.274204
H      -0.456694    4.202817    1.209651
H       2.044598    1.322565    0.105875
