21

C       0.600105    0.600664    1.018364
O      -0.220095    0.225116   -0.068606
C       0.473838   -0.418499   -1.127883
C       1.018261   -1.722675   -0.722510
C       1.468398   -2.787654   -0.392226
C      -0.497340   -0.538111   -2.321683
C      -1.742788   -1.360213   -1.972596
C      -0.855928    0.866319   -2.838137
O      -1.613142    0.833381   -4.038482
H       1.064441   -0.270994    1.498245
H       1.396734    1.291684    0.701497
H      -0.043111    1.108320    1.740612
H       1.323733    0.216367   -1.437148
H       1.867123   -3.728865   -0.103224
H       0.052370   -1.049026   -3.121404
H      -2.315663   -0.879922   -1.173897
H      -2.385262   -1.473044   -2.851133
H      -1.468246   -2.362928   -1.634489
H      -1.372049    1.429330   -2.049073
H       0.062881    1.411862   -3.083074
H      -2.513418    0.582177   -3.813584
