22

C      -0.026455    1.565047    0.080573
C      -0.025697    0.034159    0.055064
C      -1.419901   -0.576762   -0.026348
C      -1.435972   -2.099261   -0.099997
C      -2.887622   -2.583871   -0.045657
N      -3.676445   -1.936165    0.995378
C      -3.258456   -0.847306    1.492455
C      -3.984800   -0.152331    2.607223
O      -2.143323   -0.141818    1.142637
H       0.993061    1.955998    0.147267
H      -0.482333    1.975227   -0.827546
H      -0.592552    1.938358    0.937503
H       0.547926   -0.328553   -0.806781
H       0.469728   -0.357695    0.951893
H      -1.945882   -0.167302   -0.903048
H      -0.938173   -2.436288   -1.015334
H      -0.872258   -2.502305    0.750245
H      -3.381516   -2.417022   -1.013293
H      -2.924807   -3.665546    0.126711
H      -4.851656   -0.742184    2.901880
H      -3.318737   -0.017969    3.465684
H      -4.305817    0.845065    2.289514
