22

C      -0.036781    1.561328   -0.062822
C       0.025021    0.029454    0.024887
C       0.863287   -0.407719    1.235602
C      -1.397568   -0.568360    0.037382
O      -2.158171   -0.120632   -1.086028
C      -1.425153   -2.101883    0.119277
C      -2.869612   -2.639875    0.098028
C      -2.924320   -4.098869    0.095773
N      -2.948006   -5.254416    0.092421
H       0.965374    1.983582   -0.184884
H      -0.657321    1.886629   -0.900084
H      -0.466281    1.983508    0.853570
H       0.520305   -0.347755   -0.884896
H       0.357627   -0.153740    2.174995
H       1.067480   -1.481445    1.241529
H       1.827938    0.108882    1.234137
H      -1.935623   -0.160728    0.905028
H      -1.668632   -0.355804   -1.883149
H      -0.867041   -2.525344   -0.725973
H      -0.926157   -2.443650    1.029869
H      -3.422644   -2.271234    0.970129
H      -3.389130   -2.255961   -0.784769
