20

O      -0.090664    1.424013    0.126384
C       0.022666    0.016611   -0.033475
C      -1.390311   -0.558575    0.005395
C      -1.407856   -2.073175   -0.198198
C      -2.805871   -2.626220    0.090344
C      -3.193078   -2.338747    1.544845
C      -2.929541   -0.905131    1.999507
O      -3.472344   -0.431359    2.981131
N      -2.009007   -0.199491    1.274996
H       0.784674    1.788670    0.283067
H       0.494230   -0.241590   -0.994224
H       0.617300   -0.431918    0.776268
H      -1.948712   -0.087881   -0.820688
H      -1.096346   -2.299694   -1.222918
H      -0.680098   -2.544015    0.476348
H      -3.528328   -2.156438   -0.589378
H      -2.844573   -3.702349   -0.106913
H      -4.247436   -2.546456    1.742381
H      -2.620400   -2.987346    2.220776
H      -1.870757    0.755946    1.575353
