14

C       0.034364    1.530604    0.632006
C      -0.092478    0.192004   -0.113298
O       0.894878   -0.746234    0.280411
C      -1.447400   -0.354203    0.025564
C      -2.554237   -0.812666    0.184756
C      -3.866627   -1.358075    0.365215
O      -4.139583   -2.298566    1.075306
C      -4.916156   -0.662758   -0.405079
N      -5.743565   -0.120610   -1.003680
H       1.051142    1.908738    0.503263
H      -0.675169    2.265593    0.242498
H      -0.161560    1.396804    1.700467
H       0.094181    0.363127   -1.180435
H       0.745584   -0.969004    1.206698
