17

C       0.023210    1.578694    0.030281
C       0.041241    0.075816    0.068336
C      -1.222897   -0.791858    0.226100
N      -0.394069   -1.888727    0.826145
C       0.892509   -1.860150    0.057678
C       0.662193   -0.895721    1.156938
C       0.857119   -0.744892   -0.995106
C       0.270492   -0.976640   -2.309918
N      -0.208778   -1.147793   -3.348331
H       1.035918    1.995087    0.039808
H      -0.477360    1.934636   -0.877257
H      -0.516446    1.984562    0.892126
H      -1.897523   -0.412319    0.997744
H      -1.790147   -1.062262   -0.670816
H       1.473454   -2.771532    0.035265
H       1.108232   -0.762864    2.133183
H       1.857989   -0.319606   -1.112161
