18

C       0.005587    1.538859   -0.074383
C      -0.002649    0.011904    0.032446
O       0.575132   -0.436896    1.255626
C      -1.381935   -0.556396   -0.101332
C      -1.917796   -2.013805   -0.122938
C      -3.245502   -1.488685   -0.690032
C      -3.018525   -1.560761    0.796759
N      -2.482409   -0.131098    0.854526
C      -2.673000   -0.050909   -0.641508
H       1.011505    1.911051    0.133731
H      -0.290026    1.868759   -1.075461
H      -0.686616    1.976835    0.652379
H       0.634788   -0.413283   -0.752968
H      -0.055037   -0.202938    1.948793
H      -1.447259   -2.977275   -0.253947
H      -3.964337   -1.983837   -1.326172
H      -3.555504   -2.050649    1.598959
H      -2.934411    0.875699   -1.139190
