20

C      -0.061857    1.542921    0.010626
C       0.086640    0.039663    0.026814
C       1.400898   -0.694989   -0.238341
N       2.625264    0.047148   -0.074590
C       2.660915    0.414079    1.147476
C       3.711592    1.238617    1.806253
O       1.636291    0.013715    1.959166
C       0.742664   -0.740002    1.136438
C       0.119473   -1.900217    1.853874
H       0.861462    2.049586    0.298153
H      -0.325013    1.889543   -0.993859
H      -0.851108    1.866604    0.697436
H      -0.764175   -0.495278   -0.390035
H       1.423801   -1.518335   -0.943465
H       4.518329    1.431508    1.099725
H       3.295876    2.191417    2.149739
H       4.104735    0.719734    2.686046
H      -0.532370   -1.560782    2.666195
H      -0.487051   -2.487486    1.158885
H       0.886239   -2.554449    2.280922
