20

C      -0.123982    1.411553   -0.153743
C       1.291701    0.977490    0.127496
C       0.198506   -0.052797    0.023156
C      -0.277940   -0.779193    1.252323
C      -1.674232   -1.409734    1.140436
C      -1.582362   -2.571942    2.136638
C      -0.125110   -3.020447    1.955070
O       0.608754   -1.868926    1.543054
H      -0.667724    1.912059    0.641281
H      -0.371794    1.765202   -1.148135
H       2.018966    1.034841   -0.674399
H       1.699352    1.180082    1.112280
H       0.194796   -0.665602   -0.874615
H      -0.261386   -0.075496    2.103283
H      -2.473313   -0.699119    1.363804
H      -1.830951   -1.785807    0.122486
H      -1.748381   -2.212202    3.157909
H      -2.298602   -3.374290    1.943264
H       0.316120   -3.417693    2.876822
H      -0.043783   -3.799686    1.182562
