12

O       0.030020    0.003731    0.232796
C      -0.040399    1.195259    0.165258
C      -1.285503    2.073005    0.060979
C      -0.772178    3.468370    0.426382
C       0.707409    3.375320    0.018352
O       1.066098    1.991977    0.163948
H      -1.644735    2.022888   -0.973600
H      -2.076730    1.684765    0.702883
H      -1.291596    4.282294   -0.082766
H      -0.855321    3.635491    1.504381
H       0.863591    3.668694   -1.026949
H       1.377547    3.962687    0.649273
