19

C       0.084149    1.521909    0.074116
O       1.242745    0.681292    0.101672
C      -0.035147    0.058785    0.031076
C      -0.513672   -0.781328    1.242276
C      -1.636547   -1.620013    0.644959
C      -1.515576   -1.642245   -0.679799
C      -2.295324   -1.635038   -1.973512
C      -1.487134   -0.322079   -2.305737
C      -0.438462   -0.735529   -1.208672
H      -0.129359    2.055453    1.000161
H      -0.046870    2.105121   -0.836981
H       0.320081   -1.382942    1.629964
H      -0.857358   -0.152666    2.071171
H      -2.450233   -2.025282    1.235238
H      -2.019005   -2.447334   -2.654062
H      -3.384651   -1.575796   -1.916312
H      -1.120119   -0.215613   -3.328899
H      -2.044878    0.572655   -2.019377
H       0.427182   -1.238648   -1.655061
