17

C      -0.036531    1.478979   -0.016817
C       0.035198   -0.023886   -0.051373
C       0.698698   -0.745183   -1.185088
N       1.374415   -0.647224    0.131430
C       1.285494   -1.965268    0.664444
C       0.772956   -2.877899   -0.179330
C       0.392067   -2.189477   -1.412969
N      -0.059001   -2.626958   -2.529082
O      -0.219524   -4.024051   -2.492709
H       0.832825    1.921082   -0.510168
H      -0.941742    1.829593   -0.523816
H      -0.063362    1.842748    1.015571
H      -0.782974   -0.554287    0.431954
H       1.117255   -0.158219   -1.995673
H       1.627484   -2.119060    1.680622
H       0.642054   -3.933605   -0.000573
H      -0.538165   -4.213254   -3.381220
