22

C      -0.083528    1.532590    0.056394
C       0.055081    0.013103    0.061064
C       1.115165   -0.532086   -0.942743
C       2.136590   -0.640920    0.222767
C       0.945272   -0.569526    1.212057
N       1.103514    0.160122    2.443433
C       0.721920   -0.331732    3.663383
C       0.957741    0.605063    4.839531
O       0.226202   -1.434231    3.808640
H       0.891802    2.034491    0.079957
H      -0.596631    1.869060   -0.850390
H      -0.661506    1.882558    0.918146
H      -0.937430   -0.441432   -0.009948
H       0.841826   -1.511296   -1.343635
H       1.380780    0.122570   -1.776498
H       2.776593   -1.524761    0.271971
H       2.773039    0.247578    0.289898
H       0.600312   -1.564220    1.496630
H       1.500117    1.084414    2.402567
H      -0.008999    0.872253    5.275810
H       1.523042    0.068935    5.605603
H       1.491550    1.522132    4.575996
