19

C      -0.059896    1.555646    0.028372
C       0.059382    0.042087    0.082642
C      -1.251099   -0.659023   -0.246898
O       1.111102   -0.451875   -0.824745
C       1.711442   -1.182588    0.226954
C       2.229073   -0.260138    1.308669
C       0.771812   -0.597770    1.289555
C       2.153958   -2.571380    0.053470
O       2.101228   -3.196925   -0.975874
H       0.880307    2.045126    0.290935
H      -0.336270    1.870342   -0.982852
H      -0.836512    1.901813    0.717916
H      -1.599628   -0.356066   -1.238308
H      -1.118239   -1.743905   -0.246470
H      -2.022660   -0.398570    0.486030
H       2.796915   -0.734954    2.103029
H       2.592713    0.714397    0.999864
H       0.272931   -1.111688    2.101236
H       2.555584   -3.013404    0.995585
