19

C      -0.239491    1.452058    0.036377
C       0.221875   -0.011383   -0.045153
C       0.801809   -0.523414    1.234790
C       0.065681   -1.029586    2.441924
C       1.089499   -1.935853    1.805295
O       0.770543   -3.219064    1.440561
C       2.482096   -1.437449    2.016431
N       3.555471   -2.086811    2.156382
N       2.144050   -0.068088    1.746690
H       0.590085    2.117165    0.296653
H      -0.649136    1.784584   -0.922091
H      -1.013884    1.574977    0.799563
H      -0.623814   -0.653429   -0.317492
H       0.963335   -0.122230   -0.848505
H       0.227155   -0.582718    3.419427
H      -0.947424   -1.370711    2.244665
H       1.561411   -3.602327    1.040168
H       4.375597   -1.478169    2.125998
H       2.742929    0.364654    1.048851
