19

C       0.130716    1.618438   -0.044091
C       0.097708    0.086388   -0.019763
C       0.649562   -0.535181    1.271565
C      -0.209298   -0.242745    2.492079
O       0.284153   -0.913077    3.660989
C       0.904203   -2.112250    3.606012
O       1.240847   -2.670091    4.606596
O       1.163144   -2.652646    2.395283
C       0.726423   -2.049900    1.169274
H       1.147638    1.994446    0.110496
H      -0.221007    1.996639   -1.008181
H      -0.507434    2.055250    0.730244
H      -0.930724   -0.264534   -0.178543
H       0.682733   -0.298788   -0.864177
H       1.660291   -0.147931    1.457771
H      -0.220601    0.816373    2.756962
H      -1.246019   -0.561484    2.314229
H      -0.255131   -2.466684    0.904678
H       1.446698   -2.374579    0.413791
