18

C      -0.918731    2.631792    0.958735
C      -0.705857    1.326944    0.175183
C       0.365846    0.439943    0.823316
C      -2.017174    0.579349    0.081100
O      -3.011542    1.086151   -0.792391
C      -2.470736   -0.191528   -1.113897
C      -1.625440   -0.310241   -2.341938
O      -1.111876    0.610159   -2.925623
H       0.010564    3.207590    1.006530
H      -1.681555    3.251709    0.479651
H      -1.239737    2.430310    1.987808
H      -0.398520    1.582751   -0.842889
H       0.545782   -0.468642    0.239244
H       1.314296    0.979178    0.904155
H       0.071533    0.135788    1.835028
H      -2.410966    0.220627    1.037164
H      -3.141634   -1.036210   -0.947185
H      -1.490835   -1.362143   -2.682459
