14

C       0.016990    1.515531    0.067580
C       0.028869    0.064673    0.025907
C       0.038917   -1.145049   -0.009396
C       0.049422   -2.504018   -0.049644
C       0.067195   -3.714101   -0.084234
C       0.030453   -5.163995   -0.137334
C      -1.397077   -5.713260   -0.256277
O      -1.680188   -6.679406   -0.908843
H       1.031228    1.915920    0.176217
H      -0.410983    1.934953   -0.849845
H      -0.578060    1.882066    0.911630
H       0.620321   -5.567179   -0.967553
H       0.452072   -5.588128    0.787866
H      -2.154729   -5.149651    0.329058
