18

C       0.174668    1.343071    0.084670
O      -0.261706    0.039696   -0.237395
C       0.499424   -0.572732   -1.236037
C       1.824723   -1.330822   -0.781388
C       0.857055   -2.435063   -0.238764
C       0.049986   -2.048511   -1.523459
C       1.060666   -2.389000   -2.618742
C       2.217059   -1.920020   -2.132807
H       1.189018    1.345772    0.509506
H       0.168927    1.999503   -0.798986
H      -0.519304    1.743164    0.827478
H       0.609221    0.085090   -2.110550
H       2.590061   -0.861223   -0.164008
H       1.247359   -3.453762   -0.182949
H       0.351477   -2.144819    0.683939
H      -0.999647   -2.304072   -1.662627
H       0.844883   -2.861141   -3.566566
H       3.200451   -1.901221   -2.581192
