19

C      -0.150719    1.547008    0.060334
C       0.033191    0.015387    0.004653
C       0.802349   -0.464715   -1.235834
C       2.271516   -0.029600   -1.186535
N       2.965552   -0.315968    0.057650
C       2.294280   -0.487965    1.134975
N       2.901673   -0.711940    2.339487
C       0.776816   -0.435180    1.245520
O       0.229554   -0.722328    2.288849
H       0.807536    2.074078    0.102499
H      -0.687746    1.892803   -0.828290
H      -0.728943    1.829304    0.944206
H      -0.958262   -0.447429    0.045242
H       0.760538   -1.560558   -1.277404
H       0.323876   -0.093061   -2.149512
H       2.826234   -0.517153   -1.996824
H       2.356415    1.048933   -1.388475
H       3.868744   -0.990221    2.322886
H       2.309969   -1.069903    3.072180
