13

O       0.623749    2.491752    1.384260
C       0.212168    1.981368    0.366410
N       0.974933    1.206016   -0.464979
C       2.309157    0.916469   -0.237004
C       3.184462    1.240650    0.725184
N       4.383889    0.611897    0.349879
C       4.233436   -0.080291   -0.820361
O       5.007548   -0.736282   -1.457924
O       2.896905    0.122240   -1.188165
H      -0.823239    2.084386   -0.003806
H       0.567134    0.812973   -1.299917
H       3.063614    1.838541    1.606991
H       5.257411    0.640649    0.844483
