17

C       0.250092    1.597878    0.037552
C       0.005622    0.080507    0.073549
C       0.635615   -0.653465   -1.123768
O       1.937352   -1.087156   -0.688551
C       1.988486   -1.180125    0.678309
N       2.958684   -1.672763    1.322969
C       0.741093   -0.578801    1.220746
N       0.259979   -0.549361    2.402775
O       1.039969   -1.174441    3.352839
H       1.318278    1.821328   -0.052654
H      -0.266882    2.052565   -0.813684
H      -0.117591    2.062172    0.956224
H      -1.067389   -0.114929    0.137292
H       0.051301   -1.533712   -1.417161
H       0.776215   -0.014852   -1.998962
H       3.673370   -2.003834    0.670347
H       0.513673   -1.064805    4.153633
