20

C      -0.070862    1.584798   -0.058883
C      -0.166518    0.064150   -0.197357
C       0.840971   -0.503374   -1.211601
O       2.175011   -0.158748   -0.860694
C       0.731915   -2.012428   -1.357518
O       1.175327   -2.697092   -0.203954
C      -0.351079   -2.642780   -2.188878
C       1.097014   -2.677405   -2.645229
H       0.946950    1.876662    0.210990
H      -0.321827    2.081975   -1.002717
H      -0.755982    1.959139    0.707703
H       0.018392   -0.402649    0.780482
H      -1.179613   -0.228972   -0.501586
H       0.652347   -0.041661   -2.189781
H       2.456138   -0.831210   -0.226483
H       0.475853   -2.650584    0.457391
H      -0.777774   -3.570927   -1.824529
H      -1.047619   -1.996849   -2.713369
H       1.396732   -2.052136   -3.478611
H       1.615425   -3.626043   -2.571140
