16

O       0.435212    0.411482    0.838437
C      -0.217260    0.283193   -0.412213
C      -1.543391   -0.403787   -0.260367
N      -2.565508   -0.642140   -1.331867
C      -3.180675   -1.247159   -0.102244
C      -1.807593   -1.804353    0.377306
N      -1.861096   -1.217858    1.758483
C      -2.575606   -0.208412    0.904515
H       0.000544   -0.186040    1.465323
H      -0.364173    1.288145   -0.834224
H       0.401127   -0.278702   -1.130121
H      -3.038534    0.234951   -1.567375
H      -4.158998   -1.731238   -0.097080
H      -1.331595   -2.754722    0.137672
H      -2.516323   -1.731815    2.351986
H      -3.002456    0.716632    1.296387
