21

C       0.127853    1.527462   -0.054024
C       0.066254    0.073690   -0.009421
C       0.009583   -1.130832    0.014977
C       0.005711   -2.570437    0.040923
O       1.039103   -3.179483   -0.698788
C      -0.481150   -3.309402    1.288198
C      -0.933509   -2.589995    2.538537
C      -1.293598   -3.346219    0.008205
C      -2.636787   -2.670458   -0.146902
H       0.726994    1.869034   -0.905440
H      -0.871645    1.963637   -0.160647
H       0.576288    1.942707    0.855552
H       1.875628   -2.869704   -0.333290
H       0.091890   -4.215397    1.468530
H      -1.387921   -1.623088    2.311578
H      -1.666228   -3.187698    3.092383
H      -0.085428   -2.402347    3.206011
H      -1.189282   -4.271774   -0.551662
H      -2.661300   -1.690819    0.335519
H      -2.870814   -2.519343   -1.205926
H      -3.434101   -3.283332    0.287701
