18

O       0.085399    1.377807    0.103839
C       0.058340   -0.034496    0.108736
C      -1.368611   -0.548983    0.001533
C      -2.311579   -0.326539    1.220173
C      -2.653052   -1.851554    1.223659
C      -1.681471   -2.076409    0.043518
O      -2.332868   -2.343047   -1.222586
C      -2.426511   -1.136871   -1.833500
N      -1.954195   -0.098685   -1.277482
H      -0.448635    1.647981   -0.654051
H       0.656737   -0.458581   -0.715145
H       0.512113   -0.359251    1.051980
H      -1.792578    0.023699    2.115072
H      -3.148329    0.343011    1.015627
H      -2.375320   -2.383394    2.136483
H      -3.686791   -2.102222    0.977083
H      -0.880574   -2.807001    0.170389
H      -2.918584   -1.164055   -2.799790
