11

N       0.053667    1.327550   -0.013056
C      -0.028180   -0.019076    0.017735
N      -1.188479   -0.614012    0.038326
O      -1.194631   -2.002348    0.115293
N      -0.080593   -2.758539    0.159117
C       1.075220   -2.173899    0.120263
C       1.260123   -0.742982    0.036842
O       2.331125   -0.157280   -0.021213
H       0.969873    1.710751   -0.183761
H      -0.767422    1.881844   -0.184516
H       1.937094   -2.832519    0.153639
