15

N      -0.090229    1.055612   -0.698019
C      -0.064743   -0.019959   -0.048930
C      -1.267803   -0.891894    0.279132
C      -0.676985   -2.140682    0.899622
C       0.335767   -2.922473    0.099365
C       0.803314   -1.841334    1.047616
O       1.086900   -0.587406    0.465164
C       1.571530   -2.132496    2.224014
N       2.179325   -2.394692    3.171864
H       0.843980    1.456869   -0.788822
H      -1.915152   -0.365788    0.986920
H      -1.853165   -1.077586   -0.624552
H      -1.207245   -2.645922    1.696201
H       0.515028   -3.950638    0.390945
H       0.457617   -2.709897   -0.957946
