19

C       0.007622    1.558161    0.138935
C      -0.022535    0.038031   -0.026121
C       0.724589   -0.478070   -1.279467
O       2.077195   -0.022121   -1.293401
C       0.658095   -2.022010   -1.364535
C       1.386206   -2.614382   -2.571969
C       0.101286    0.102111   -2.489476
N      -0.434917    0.529389   -3.419004
H       1.036160    1.927312    0.148165
H      -0.519633    2.054077   -0.681203
H      -0.473802    1.850485    1.076214
H       0.446112   -0.447691    0.840652
H      -1.055766   -0.324902   -0.062654
H       2.505432   -0.388660   -0.510937
H       1.093372   -2.406568   -0.432070
H      -0.394675   -2.325809   -1.362602
H       0.918167   -2.297790   -3.508592
H       2.429978   -2.291339   -2.592727
H       1.362379   -3.706966   -2.534447
