20

C      -0.008011    1.355496    0.684752
O      -0.120902   -0.046312    0.711933
C       1.078598   -0.701154    0.357320
C       0.855747   -2.191800    0.513512
N       2.022015   -3.031476    0.101917
C       1.973492   -3.794526    1.376177
C       2.910951   -3.189864    2.432308
O       1.909059   -2.203016    2.798910
C       0.925192   -2.804289    1.936018
H       0.248154    1.725746   -0.321247
H      -0.977110    1.768969    0.975432
H       0.758808    1.717641    1.387237
H       1.360362   -0.475929   -0.685864
H       1.910008   -0.387543    1.005663
H      -0.085528   -2.471433    0.021453
H       1.843444   -3.597554   -0.718676
H       1.868677   -4.877765    1.307157
H       3.142287   -3.845199    3.282136
H       3.826898   -2.734995    2.041726
H      -0.006016   -3.036723    2.455278
