20

C      -0.094220    1.722741    0.013895
C       0.037213    0.189508    0.013938
N      -1.232631   -0.549477    0.076795
C      -2.050498   -0.274135    1.249981
C      -3.210235   -1.171292    1.298147
N      -4.138642   -1.857462    1.329927
C       0.800716   -0.273484   -1.212814
C       2.242206   -0.615986   -1.111994
N       1.236274   -1.666076   -1.334094
H       0.893862    2.190093   -0.040821
H      -0.675379    2.060762   -0.851702
H      -0.585778    2.093894    0.917818
H       0.607034   -0.113026    0.905042
H      -1.773333   -0.398982   -0.769622
H      -1.443473   -0.451953    2.147084
H      -2.428229    0.759495    1.331279
H       0.436951    0.150745   -2.149405
H       2.909123   -0.434151   -1.949998
H       2.714027   -0.536007   -0.135247
H       1.028959   -2.159365   -0.468624
