10

O      -0.067377    1.352993    0.010026
N       0.071255   -0.016874    0.001370
C      -1.076160   -0.620278    0.009084
C      -1.062182   -2.046726    0.001316
C      -1.099620   -3.248741   -0.004763
C      -2.339884    0.042318    0.024684
C      -3.415957    0.579568    0.037823
H       0.848255    1.656105    0.002917
H      -1.121664   -4.310629   -0.010249
H      -4.364807    1.057275    0.049429
