16

O      -1.116191    1.922939    0.242445
C      -0.200309    1.281835   -0.201568
C       1.202161    1.858829   -0.451600
O       2.034545    1.120462   -0.930705
C       1.442921    3.279527   -0.038800
C       1.924792    3.472408    1.447991
C       2.941839    4.523835    0.930896
C       2.747457    3.970336   -0.505991
H      -0.280058    0.209549   -0.480955
H       0.542091    3.871294   -0.215231
H       1.168636    3.791077    2.166936
H       2.420776    2.573960    1.825598
H       2.555926    5.541634    1.033166
H       3.948974    4.490272    1.351431
H       3.497595    3.221760   -0.771701
H       2.659514    4.691257   -1.321213
