22

C      -0.086015    1.389845    0.122679
O      -0.041924   -0.015150    0.123622
C      -1.307804   -0.606808   -0.104988
C      -1.152608   -2.118915   -0.033105
C      -0.222269   -2.646067   -1.123095
C      -0.803152   -2.705235    1.391518
C      -2.117499   -3.489195    1.350767
N      -3.200676   -2.478820    1.250687
C      -2.476806   -2.909952    0.029041
H       0.926670    1.751919    0.318665
H      -0.423455    1.788887   -0.847718
H      -0.760038    1.779249    0.902350
H      -2.033744   -0.272437    0.649251
H      -1.693452   -0.310864   -1.097906
H       0.768951   -2.196012   -1.026026
H      -0.120020   -3.734706   -1.062926
H      -0.609408   -2.399842   -2.119348
H       0.087757   -3.336234    1.367897
H      -0.717418   -1.981104    2.204526
H      -2.322057   -4.472857    1.755590
H      -4.085732   -2.985606    1.262053
H      -3.010594   -3.346692   -0.807839
