23

C      -0.042978    1.531772   -0.313154
C       0.010476    0.047221   -0.022127
C       1.302313   -0.697005   -0.010655
N       0.542118   -0.510425    1.223261
C       1.102631    0.373352    2.237641
C       1.909703   -0.449480    3.242495
N       2.490176    0.418677    4.260093
C       1.677986    0.647639    5.451831
C       2.883654   -0.223696    5.507507
H       0.881441    2.045602   -0.040124
H      -0.208463    1.693438   -1.383666
H      -0.869711    2.010892    0.223328
H      -0.870969   -0.492582   -0.367822
H       1.372169   -1.715027   -0.385689
H       2.208416   -0.104187   -0.139893
H       1.754387    1.163553    1.833852
H       0.274312    0.870046    2.757780
H       1.262300   -1.234713    3.670430
H       2.730186   -0.956561    2.720388
H       1.702495    1.654510    5.858775
H       0.708117    0.154920    5.510115
H       2.716091   -1.295428    5.605178
H       3.806393    0.134973    5.955067
