18

C      -0.052601    1.574051    0.069527
C       0.002030    0.035573    0.001376
C       0.679002   -0.460675   -1.187980
C       1.245138   -0.856470   -2.182875
C       1.880717   -1.302342   -3.299963
C       2.446798   -1.698110   -4.294899
C       3.123709   -2.194468   -5.484249
C       3.178185   -3.732948   -5.552394
H       0.954910    1.998027    0.076312
H      -0.585216    1.981867   -0.793543
H      -0.569570    1.894247    0.978898
H       0.507720   -0.353348    0.895133
H      -1.018162   -0.369357    0.033311
H       2.618064   -1.805485   -6.378005
H       4.143941   -1.789637   -5.516181
H       2.170633   -4.156826   -5.559172
H       3.695115   -4.053208   -6.461766
H       3.710763   -4.140819   -4.689327
