21

C      -0.011920    1.361674   -0.255757
O      -0.063622    0.086882    0.342583
C      -1.280970   -0.563236    0.144262
C      -1.650721   -1.173921   -1.235968
C      -2.272286   -2.371544   -0.463105
C      -1.394064   -1.977120    0.768690
O      -0.134416   -2.613860    0.732523
C      -1.983481   -2.088582    2.164898
O      -2.018522   -3.480052    2.481714
H       0.964838    1.791340   -0.021048
H      -0.121465    1.309345   -1.349269
H      -0.797662    2.028321    0.136065
H      -2.116626    0.061853    0.506812
H      -2.296425   -0.596828   -1.900952
H      -0.745570   -1.476479   -1.767171
H      -3.341906   -2.242618   -0.275453
H      -2.092552   -3.370428   -0.862067
H      -0.265198   -3.447412    1.203308
H      -1.338985   -1.538428    2.865307
H      -2.991469   -1.649519    2.196938
H      -2.114585   -3.578126    3.432657
