17

C       0.026028    1.579651   -0.050344
C       0.019799    0.051865    0.001498
N      -1.337112   -0.514121    0.015577
C      -1.992873   -0.723825   -1.196894
N      -1.434405   -0.434835   -2.302224
C      -2.017393   -0.829346    1.185964
O      -3.143359   -1.289054    1.205453
C      -1.299813   -0.572760    2.424094
C      -0.800986   -0.387314    3.502686
H       1.057430    1.944903   -0.073362
H      -0.482763    1.934740   -0.949345
H      -0.466511    2.005657    0.828791
H       0.514720   -0.357013   -0.880919
H       0.540019   -0.309727    0.889531
H      -2.987155   -1.145666   -1.052887
H      -2.056233   -0.664352   -3.075157
H      -0.360143   -0.226026    4.456523
