16

C      -0.074849    1.504106   -0.024978
O      -0.162356    0.086197   -0.067814
C       0.613074   -0.534332   -1.058516
C       2.163212   -0.553457   -0.771488
C       2.038955   -2.060913   -0.491565
O       2.810567   -2.895323   -0.128767
C       0.548323   -2.082709   -0.861759
C       0.255337   -0.071632   -2.408547
N      -0.021956    0.301069   -3.467048
H       0.954430    1.842536    0.156301
H      -0.439203    1.957171   -0.955290
H      -0.706232    1.823830    0.805312
H       2.806828   -0.315486   -1.622267
H       2.462041    0.051857    0.087893
H      -0.133931   -2.373668   -0.059702
H       0.323579   -2.659600   -1.761919
