17

O      -0.015741    0.004183   -0.095006
C       0.013007    1.198537   -0.039877
O      -1.117398    1.964153    0.000177
C      -0.716730    3.355263    0.190294
C       0.621471    3.421573   -0.559302
C       1.231638    2.132385    0.007512
C       1.651123    2.355279    1.481145
C       0.611895    3.138860    2.248166
C      -0.489463    3.613930    1.666081
H      -1.513070    3.968485   -0.230172
H       0.467525    3.351254   -1.639913
H       1.190466    4.325436   -0.332942
H       2.050348    1.704437   -0.571031
H       1.832289    1.390355    1.970287
H       2.610724    2.890383    1.506755
H       0.794233    3.297864    3.307732
H      -1.242692    4.157151    2.226442
