12

N       0.283823    1.369374   -1.332328
C      -0.038998    0.368748   -0.636341
O      -1.371980   -0.037095   -0.709735
C      -2.095789   -0.132382    0.441909
O      -1.722431    0.171534    1.533680
C      -3.487487   -0.682141    0.088386
O      -4.316533   -0.866540    0.931380
C       0.811825   -0.464518    0.152336
C       1.565369   -1.159511    0.780554
H       1.286270    1.543184   -1.262803
H      -3.644329   -0.885799   -0.988537
H       2.225235   -1.769802    1.348381
