21

C      -0.254440    1.501065   -0.150673
C       0.167783    0.037959    0.030766
C       0.787989   -0.548341   -1.209426
C      -0.032565   -1.117009   -2.338685
C       0.898880   -2.012302   -1.531789
C       2.283036   -2.215262   -2.104554
O       2.251173   -3.019346   -3.275069
C       2.752254   -0.760887   -2.389851
O       1.996406    0.103750   -1.556202
H       0.605094    2.117017   -0.427748
H      -1.005143    1.597608   -0.941859
H      -0.681544    1.902997    0.772971
H       0.890245   -0.040975    0.852526
H      -0.698588   -0.573555    0.307726
H      -1.096212   -1.240812   -2.165342
H       0.228509   -0.890328   -3.366030
H       0.482108   -2.778839   -0.889308
H       2.920496   -2.684035   -1.340498
H       3.158888   -3.205234   -3.535898
H       3.812955   -0.592046   -2.178284
H       2.574646   -0.551398   -3.454628
