18

C      -0.084092    1.330072    0.167723
O      -0.119631   -0.074526    0.265389
C      -1.312108   -0.624138   -0.253995
C      -1.207131   -2.124907   -0.147785
C      -1.505390   -2.822654    1.152338
C      -2.466029   -2.955862   -0.018107
O      -3.675051   -2.256309    0.008063
C      -2.523899   -4.223956   -0.716950
N      -2.591455   -5.243323   -1.259397
H       0.867332    1.662040    0.589653
H      -0.147702    1.669463   -0.878287
H      -0.906618    1.800333    0.729856
H      -2.190005   -0.260121    0.299056
H      -1.446120   -0.328941   -1.308082
H      -0.423625   -2.562528   -0.757606
H      -0.912836   -3.683253    1.438669
H      -1.867133   -2.209650    1.970732
H      -4.287229   -2.731252    0.582096
