16

C      -0.161393    1.402092    0.060126
O       0.126302   -0.000810    0.101499
C       0.696833   -0.532018   -1.044482
C       0.554621   -2.086874   -1.119588
N      -0.137886   -1.912167   -2.399229
C      -0.202987   -0.546412   -2.354984
O      -0.749522    0.281706   -3.029348
C       2.116857   -0.082759   -1.341841
O       2.721229    0.743801   -0.712069
H       0.758215    1.992160    0.042658
H      -0.780234    1.650345   -0.808220
H      -0.716664    1.615749    0.975333
H       1.481853   -2.663661   -1.183438
H      -0.072903   -2.456065   -0.304971
H      -0.643410   -2.571082   -2.974517
H       2.567603   -0.596805   -2.222396
