20

C       0.029965    1.587593    0.408554
C      -0.025158    0.130435   -0.083409
C      -1.412300   -0.404619   -0.195545
C      -2.174891   -0.829230   -1.245182
C      -1.823792   -0.887412   -2.698871
C      -3.444260   -1.220343   -0.679624
N      -4.550481   -1.644043   -1.433995
C      -3.350534   -1.002116    0.659739
O      -2.114204   -0.497085    0.967248
H       1.066067    1.927450    0.502194
H      -0.488657    2.254626   -0.286867
H      -0.451016    1.682087    1.385764
H       0.458380    0.047461   -1.061801
H       0.553937   -0.502320    0.602346
H      -1.821443   -1.917272   -3.080792
H      -2.544112   -0.324647   -3.304473
H      -0.831450   -0.471543   -2.890937
H      -4.290035   -2.283100   -2.175371
H      -5.268677   -2.076470   -0.866991
H      -4.030363   -1.131523    1.484879
