18

C      -0.169842    1.478476    0.018973
C       0.082119   -0.004758   -0.005572
N      -0.705831   -0.909017    0.853773
C       0.755496   -0.777454    1.070789
C       1.568324   -1.888784    0.428697
O       0.793042   -2.870048   -0.263166
C       1.383520   -1.813594   -1.028333
C       0.389828   -0.688817   -1.361548
O      -0.772935   -1.152575   -2.008056
H       0.679987    2.033173   -0.393734
H      -1.053010    1.727076   -0.580311
H      -0.339491    1.834305    1.041076
H      -1.197456   -0.359296    1.556207
H       1.117555   -0.312955    1.982154
H       2.473949   -2.250755    0.907506
H       2.125890   -2.126002   -1.758984
H       0.862290    0.029274   -2.040534
H      -1.198852   -1.730546   -1.358996
