20

O      -0.070749   -0.054978    0.023469
C      -0.003886    1.157442    0.022394
N       1.136223    1.888046   -0.112917
C       2.432217    1.232274   -0.195389
C       3.246978    1.513256    1.074815
C       3.262216    2.987862    1.444314
C       3.627418    4.046852    0.437501
C       2.191637    3.904042    0.886828
C       1.141779    3.341440   -0.075259
H      -0.895039    1.807908    0.131073
H       2.248073    0.164144   -0.315257
H       2.959753    1.590592   -1.089922
H       2.797171    0.946167    1.898140
H       4.269498    1.137318    0.948481
H       3.568082    3.185558    2.467580
H       4.191779    4.908821    0.775692
H       3.867880    3.734431   -0.575021
H       1.817052    4.677529    1.548887
H       1.312451    3.738084   -1.087461
H       0.143981    3.670535    0.229755
