18

C      -0.117164    1.328958   -0.293895
O      -0.112685   -0.087541   -0.219606
C      -1.323707   -0.621118    0.246705
O      -2.388220   -0.434926   -0.661441
C      -2.304407   -1.470156   -1.651251
C      -1.842836   -2.726680   -0.890729
C      -1.176250   -2.127215    0.320463
N      -0.619677   -2.692235    1.310464
O      -0.623798   -4.086410    1.164164
H       0.870579    1.631050   -0.647738
H      -0.882311    1.694732   -0.988439
H      -0.296124    1.777181    0.694955
H      -1.618174   -0.147435    1.191852
H      -3.292404   -1.566869   -2.104995
H      -1.582331   -1.193364   -2.429130
H      -2.683967   -3.354704   -0.578107
H      -1.158974   -3.361488   -1.460213
H      -0.189013   -4.379427    1.972453
