23

C       0.030769    1.394288    0.075759
O      -0.003875   -0.002190   -0.091913
C      -1.307829   -0.575007   -0.005450
C      -1.271434   -1.903844   -0.759598
C      -2.538886   -2.731409   -0.505201
C      -2.576716   -3.998726   -1.363224
C      -2.659113   -3.057295    0.993860
C      -2.323020   -1.882293    1.873650
C      -1.732797   -0.773400    1.430726
H       1.068032    1.710564   -0.062590
H      -0.598706    1.909041   -0.668065
H      -0.296457    1.714178    1.076705
H      -2.019267    0.107333   -0.505837
H      -1.136521   -1.711989   -1.829420
H      -0.388122   -2.459386   -0.419479
H      -3.404377   -2.109155   -0.776870
H      -1.714736   -4.641734   -1.149063
H      -3.483095   -4.582779   -1.169301
H      -2.555175   -3.757403   -2.431078
H      -3.671630   -3.417115    1.220546
H      -1.991736   -3.897423    1.243488
H      -2.581133   -1.969440    2.927152
H      -1.523251    0.042420    2.117695
