19

C      -0.062840    1.479354    0.167983
C      -0.014390   -0.012111    0.181993
O      -0.712481   -0.697328   -0.857742
C      -1.110741   -1.736161    0.083289
C      -0.274400   -1.097828    1.179087
C       1.161459   -0.907149    0.671906
C       1.852372   -1.871904   -0.269431
C       2.033627   -0.242708    1.672880
O       1.649150    0.381178    2.638015
H       0.401463    1.863951   -0.746738
H      -1.102165    1.821244    0.188944
H       0.459374    1.889843    1.032879
H      -2.187754   -1.678900    0.271486
H      -0.844482   -2.740511   -0.262213
H      -0.494140   -1.033813    2.235943
H       1.274355   -1.997494   -1.187125
H       2.838835   -1.487464   -0.550423
H       1.998527   -2.856446    0.188270
H       3.122259   -0.350643    1.466023
