22

C       0.113363    1.480998    0.343055
C      -0.117232    0.012616   -0.034320
C       0.558043   -0.436232   -1.290534
C       0.932658   -1.785002   -1.781020
C       0.351391   -1.518167   -3.168536
C       0.532887   -0.017088   -2.825185
C       2.065591    0.093323   -2.694182
C       2.642084    1.463910   -2.395444
N       2.004079   -0.766240   -1.459971
H       1.174366    1.676846    0.522482
H      -0.227715    2.155473   -0.449505
H      -0.435198    1.735927    1.254961
H       0.236735   -0.635549    0.777056
H      -1.195092   -0.175940   -0.130766
H       0.987818   -2.717490   -1.233472
H       0.870615   -1.899542   -4.055177
H      -0.701036   -1.812592   -3.203106
H      -0.071932    0.751184   -3.305640
H       2.635575   -0.377991   -3.506535
H       2.073774    1.981514   -1.617924
H       3.678441    1.375286   -2.054929
H       2.629764    2.085721   -3.297072
