18

C      -0.225531    1.277897    0.141967
O       0.386834    0.029948   -0.115389
C       0.882883   -0.585601    1.032580
C      -0.110770   -1.403559    1.960730
C      -0.205995   -2.426013    0.769205
C       1.324734   -2.068959    0.848452
C       1.137075   -2.172484    2.345960
N       1.760473   -2.687066    3.311794
O       1.066552   -2.475503    4.532037
H       0.470018    1.973744    0.634689
H      -0.521528    1.696032   -0.822482
H      -1.117931    1.172752    0.775420
H       1.585807    0.070798    1.562581
H      -0.904522   -1.036753    2.605636
H      -0.480655   -3.449176    1.027031
H      -0.719058   -2.059633   -0.118132
H       2.140986   -2.446548    0.237412
H       1.644188   -2.917723    5.162934
