23

C       0.017847    1.525155    0.036239
C       0.001096    0.003067    0.004581
C       0.301656   -0.633793   -1.396527
C      -0.972044   -1.498904   -1.294412
C      -0.826269   -2.767783   -0.407393
C      -1.245762   -1.957505    0.864203
C      -0.149769   -1.637040    1.883480
C       0.802974   -0.642460    1.173540
C      -1.407154   -0.695111   -0.021962
H       1.035207    1.912156   -0.099329
H      -0.606358    1.949174   -0.758068
H      -0.356265    1.905500    0.994385
H       0.222595    0.109237   -2.196645
H       1.256602   -1.159322   -1.509471
H      -1.584993   -1.600850   -2.190735
H      -1.547049   -3.548747   -0.661980
H       0.170148   -3.222283   -0.384729
H      -2.155012   -2.340943    1.333033
H      -0.604462   -1.157620    2.759038
H       0.367651   -2.532113    2.245727
H       1.689812   -1.155492    0.787324
H       1.167959    0.117954    1.871301
H      -2.298186   -0.069812    0.047613
