19

C      -0.358793    1.370565   -0.256164
C       0.146568   -0.028349    0.119940
C       0.853673   -0.697281   -1.042704
C       0.976543   -2.143524   -1.325141
C      -0.262378   -2.968752   -0.973037
O      -0.568875   -3.368360    0.334468
C      -1.056627   -1.877970   -1.713455
N      -2.250625   -1.546085   -1.921337
N       0.128085   -1.226484   -2.236938
H       0.464811    2.006377   -0.597902
H      -1.094846    1.306749   -1.062193
H      -0.828310    1.860133    0.601623
H       0.855290    0.036028    0.955358
H      -0.702588   -0.626011    0.467078
H       1.717945   -0.126593   -1.381081
H       1.901337   -2.570840   -1.697432
H      -0.274838   -3.883311   -1.575687
H      -0.460692   -2.612891    0.920625
H      -2.882381   -2.191423   -1.441071
