17

C      -0.197379    1.638267   -0.079170
N      -0.042519    0.194983   -0.064705
C      -1.099405   -0.517761    0.012940
N      -2.404054   -0.096639    0.111542
C      -0.925346   -2.007763    0.068267
C      -1.514439   -2.790694    1.180321
O      -2.122940   -2.788771   -0.102416
C       0.301354   -2.585586   -0.609159
O       0.512892   -3.770144   -0.643819
H       0.785313    2.109375   -0.155321
H      -0.796618    1.989515   -0.935860
H      -0.680308    2.014881    0.835639
H      -2.615861    0.855254   -0.137573
H      -3.103548   -0.785640   -0.122279
H      -1.026801   -3.723603    1.453733
H      -2.053879   -2.258885    1.961245
H       0.974080   -1.835745   -1.059878
