22

C       0.050953    1.646469    0.034348
C       0.146060    0.119189   -0.060250
C       0.681540   -0.534583    1.214531
C      -0.204547   -0.358474    2.460808
O       0.191462   -1.387336    3.352007
C       0.383567   -2.553332    2.562677
C       0.849483   -2.063966    1.187082
C       0.711650   -2.901007   -0.027929
N       2.034337   -2.704053    0.601415
H       1.025590    2.089684    0.266898
H      -0.294806    2.078040   -0.909716
H      -0.649296    1.958536    0.815929
H      -0.839862   -0.300767   -0.296420
H       0.799725   -0.142714   -0.902842
H       1.664930   -0.101234    1.447805
H      -0.068648    0.597495    2.971730
H      -1.270887   -0.459079    2.187675
H       1.129453   -3.187871    3.047414
H      -0.560070   -3.116412    2.474947
H       0.315031   -3.910349    0.057163
H       0.506461   -2.420066   -0.980008
H       2.567388   -2.020511    0.066055
