21

O       0.201480    1.288507   -0.344799
C       0.063531   -0.078171    0.032879
C       0.800608   -0.391026    1.361394
C       0.011578   -0.088153    2.616246
C      -1.054331   -0.800997    2.990069
C      -1.565135   -1.955862    2.195612
C      -2.944896   -1.949210    1.574562
C      -1.724060   -1.814957    0.694894
C      -1.424105   -0.472652    0.053026
H      -0.283457    1.816983    0.298808
H       0.580435   -0.627091   -0.762558
H       1.065548   -1.454862    1.355655
H       1.740183    0.168331    1.346931
H       0.340970    0.741609    3.237502
H      -1.572492   -0.559584    3.916726
H      -1.236648   -2.931109    2.553081
H      -3.501382   -2.879986    1.561002
H      -3.559768   -1.064753    1.710044
H      -1.457728   -2.684571    0.099800
H      -1.959754    0.304911    0.611041
H      -1.814319   -0.436950   -0.969933
