19

C      -0.001094    1.487634   -0.292346
C       0.019446    0.047385    0.227401
N      -1.312901   -0.541418    0.172524
C      -1.663346   -1.235929   -1.062646
C      -1.376218   -1.997165    0.184600
C       1.363034    2.128255   -0.238376
C       1.560756    3.538605    0.115947
O       1.843002    2.503197    1.058357
H      -0.361779    1.498790   -1.329370
H      -0.708747    2.072451    0.303964
H       0.757068   -0.546749   -0.345819
H       0.349675    0.047627    1.272108
H      -2.684006   -1.104897   -1.410335
H      -0.914525   -1.281983   -1.852898
H      -0.437484   -2.548368    0.222628
H      -2.183253   -2.432144    0.767238
H       2.126549    1.657864   -0.862426
H       2.428465    4.078567   -0.261123
H       0.694912    4.157884    0.347694
