19

C      -0.523601    1.285490    0.075227
C       0.113745   -0.087281   -0.077555
C       1.419179   -0.224209   -0.881983
O       1.819684    0.284882   -1.887853
C       2.035525   -1.169255    0.161584
C       0.868690   -0.749673    1.122387
O       1.268104    0.246724    2.039146
C       0.143425   -1.864905    1.855360
O       1.041459   -2.335683    2.857069
H       0.165113    1.977215    0.563519
H      -0.779760    1.686104   -0.909861
H      -1.438128    1.237046    0.674040
H      -0.606658   -0.808339   -0.489997
H       2.004630   -2.216577   -0.156347
H       3.044384   -0.922437    0.497977
H       1.644421   -0.229497    2.790954
H      -0.775399   -1.462025    2.305979
H      -0.134672   -2.667950    1.156561
H       0.552575   -2.870817    3.488318
