18

C       0.003980    1.568915   -0.066514
C      -0.066443    0.045580   -0.024993
N       0.712796   -0.526822   -1.105147
C       0.822967   -1.863635   -1.359711
C       0.369982   -2.858755   -0.461563
N       0.515338   -4.150590   -0.718050
C       1.108280   -4.483426   -1.870658
C       1.543784   -3.506867   -2.758701
N       1.406859   -2.204170   -2.519356
H       1.038529    1.914320    0.022115
H      -0.408183    1.955487   -1.005016
H      -0.573357    1.999646    0.755288
H       0.324809   -0.312416    0.936584
H      -1.117087   -0.281189   -0.078070
H       0.946017    0.063251   -1.889255
H      -0.114083   -2.592147    0.473117
H       1.229724   -5.540515   -2.084847
H       2.018268   -3.780259   -3.698633
