21

C      -0.067581    1.525561   -0.081044
C      -0.040041    0.064926    0.328274
C       1.015209   -0.905911   -0.299316
N       2.058061   -0.151577    0.509370
C       3.343424   -0.795261    0.775258
C       0.910507   -0.410969    1.475883
C       0.738676   -1.832790    0.902400
C      -0.180698   -2.959678    1.136860
N       1.291585   -3.095553    1.334896
H       0.942962    1.931824   -0.134732
H      -0.547806    1.642117   -1.059057
H      -0.647265    2.114628    0.638387
H      -1.042620   -0.366248    0.387753
H       1.168760   -1.159612   -1.351159
H       3.929316   -0.795256   -0.150578
H       3.886212   -0.183608    1.504154
H       3.293671   -1.820008    1.163527
H       0.943718   -0.083361    2.516243
H      -0.764168   -3.024022    2.051218
H      -0.632545   -3.446485    0.275957
H       1.704068   -3.599091    0.552801
