18

C      -0.046785    1.537700    0.064534
C      -0.041164    0.042945   -0.025575
C       1.086583   -0.832121   -0.578806
C       0.598512   -1.016507    0.829598
N      -0.627346   -1.919266    0.764625
C      -0.769317   -2.173381   -0.693377
C      -1.266801   -0.892742   -0.120729
C       0.529947   -1.945460   -1.446636
O       0.352327   -1.623834   -2.813345
H       0.954470    1.918352    0.289542
H      -0.371005    1.998505   -0.876501
H      -0.720583    1.887248    0.854905
H       2.058021   -0.391846   -0.765402
H       1.190031   -0.973877    1.734611
H      -1.443777   -2.977860   -0.963972
H      -2.307017   -0.610176   -0.002056
H       1.169903   -2.833333   -1.434904
H      -0.213841   -0.844262   -2.852196
