25

C      -0.090351    1.557900    0.017050
C      -0.002458    0.024882   -0.021702
C       0.657328   -0.427595   -1.336209
C       0.630268   -1.943491   -1.612334
C       1.573589   -2.756935   -0.759916
C       1.579135   -2.784690    0.572052
C       0.638494   -2.021950    1.481837
C       0.925508   -2.359667    2.952425
C       0.685017   -0.493838    1.254596
H       0.909728    2.007888    0.016040
H      -0.628959    1.947488   -0.853342
H      -0.608734    1.905444    0.916926
H      -1.031625   -0.367693   -0.020176
H       0.141024    0.078373   -2.162133
H       1.697544   -0.075905   -1.361454
H      -0.400413   -2.305822   -1.479918
H       0.870042   -2.110294   -2.667615
H       2.306523   -3.361394   -1.289772
H       2.318322   -3.409412    1.071181
H      -0.390975   -2.347843    1.262342
H       1.925983   -2.018024    3.243367
H       0.201789   -1.880811    3.619219
H       0.880643   -3.440039    3.125155
H       1.731946   -0.160641    1.270036
H       0.196923   -0.011517    2.111965
