16

O      -0.160852    1.299808    0.202925
N      -0.011909   -0.095648    0.187887
C      -1.122083   -0.665794   -0.044845
C      -2.476029   -0.025657   -0.243857
N      -3.333584   -1.170578   -0.586951
C      -2.784132   -2.358753    0.073465
C      -1.261558   -2.168303   -0.118825
C      -3.144500   -2.451438    1.507155
N      -3.469375   -2.492476    2.616269
H       0.731199    1.601204    0.405968
H      -2.765552    0.500101    0.679815
H      -2.464680    0.714244   -1.050404
H      -4.307756   -1.015818   -0.357111
H      -3.146533   -3.266268   -0.418637
H      -0.991089   -2.529631   -1.116493
H      -0.653955   -2.692423    0.618798
