20

C      -0.017564    1.470695    0.091997
C      -0.071188   -0.032273    0.070871
C      -1.293301   -0.782878   -0.424073
C      -0.742693   -2.188919   -0.352325
C       0.249793   -2.318572    0.803409
C       0.681605   -0.868944    1.045132
N       1.187846   -0.726504   -0.363850
C       0.741486   -2.159278   -0.613352
C       1.533142   -3.023593   -1.537820
H       0.953746    1.817789    0.453892
H      -0.167016    1.880851   -0.912435
H      -0.795519    1.879916    0.745746
H      -2.160122   -0.621221    0.226790
H      -1.566985   -0.490878   -1.444635
H      -1.316055   -3.058825   -0.648755
H       0.303046   -3.154840    1.486554
H       1.245539   -0.489921    1.890401
H       2.587075   -3.054786   -1.243019
H       1.146166   -4.047601   -1.537109
H       1.483919   -2.641732   -2.564432
