21

C      -0.266809   -1.263518   -0.247837
C      -0.149705   -0.072103   -0.133867
C      -0.016435    1.378180   -0.001915
C      -0.730103    1.912040    1.264719
C      -0.216367    1.387222    2.609893
C       1.198035    1.857693    2.997299
C       2.324584    1.249737    2.195072
C       2.432295    1.229961    0.866955
C       1.462936    1.832487   -0.122805
H      -0.368182   -2.315304   -0.351539
H      -0.540035    1.830028   -0.856229
H      -0.656349    3.008009    1.248670
H      -1.794924    1.670062    1.175156
H      -0.912874    1.722658    3.387758
H      -0.248955    0.291841    2.609975
H       1.237792    2.955463    2.918283
H       1.360426    1.633384    4.056666
H       3.122518    0.787203    2.771978
H       3.308088    0.752225    0.434796
H       1.802712    1.604215   -1.137246
H       1.472161    2.928926   -0.036690
