20

C       0.036299    1.540620    0.093434
C      -0.012964    0.009975    0.061806
C      -1.429199   -0.544221   -0.029924
C      -2.367275   -0.351557    1.202223
C      -2.657538   -1.885478    1.218777
C      -1.665494   -2.088697    0.052061
O      -2.288342   -2.433049   -1.205326
C      -2.480780   -1.243259   -1.832430
N      -2.077172   -0.164733   -1.302421
H       1.069560    1.897193    0.141674
H      -0.433145    1.957473   -0.800912
H      -0.493400    1.937890    0.966021
H       0.561422   -0.362830   -0.795679
H       0.464517   -0.400295    0.961468
H      -1.847854    0.009479    2.093877
H      -3.226980    0.292897    1.011307
H      -2.382063   -2.399657    2.142354
H      -3.679344   -2.167733    0.956657
H      -0.824321   -2.765549    0.211128
H      -2.986210   -1.322943   -2.789025
