19

C      -0.151080    1.543808    0.038920
C       0.067531    0.030081   -0.022704
C       0.848244   -0.490356   -1.250625
C       1.948843   -1.340805   -0.669078
C       1.969149   -1.336385    0.670307
C       2.916592   -2.028673    1.591529
O       3.869637   -2.748677    0.829755
C       0.876734   -0.479321    1.183641
O       0.657028   -0.215214    2.346559
H       0.798616    2.080852   -0.061318
H      -0.816636    1.882553   -0.760694
H      -0.591529    1.816927    1.001541
H      -0.909568   -0.466525    0.032818
H       0.221041   -1.065265   -1.942523
H       1.269716    0.333699   -1.841908
H       2.654403   -1.885511   -1.285450
H       3.391931   -1.275863    2.241419
H       2.343717   -2.689404    2.262856
H       4.469837   -3.186250    1.439835
