21

C       0.607613    1.371801   -0.312907
C       0.092336    0.027994    0.129873
O       1.048890   -1.043995    0.262372
C       0.362048   -0.577938    1.448122
C       1.157229    0.077564    2.534356
C       2.181032   -0.719515    3.347684
C       2.471971   -2.173650    3.046218
C       2.637352    0.376157    2.413679
O       3.358341    0.116079    1.250183
H       1.558537    1.611509    0.165091
H       0.755514    1.379929   -1.397797
H      -0.122782    2.151617   -0.071107
H      -0.821780   -0.298968   -0.368616
H      -0.377111   -1.299251    1.803199
H       0.562108    0.797213    3.093012
H       2.213311   -0.470093    4.405721
H       2.482002   -2.377416    1.973350
H       3.453022   -2.455117    3.442963
H       1.725940   -2.832316    3.504046
H       2.984893    1.297869    2.872637
H       2.787497   -0.402109    0.662138
