14

C      -0.095445    1.509850   -0.013105
C      -0.054327    0.025712    0.036839
N      -1.019218   -0.814955   -0.194279
C      -0.390561   -2.024189    0.002632
N      -1.127794   -3.181186   -0.160386
C      -0.695206   -4.484263   -0.012458
O       0.417828   -4.823382    0.288669
N       0.875675   -1.961248    0.333357
O       1.098379   -0.565907    0.355025
H       0.620995    1.888109   -0.748245
H      -1.099261    1.835050   -0.284845
H       0.173362    1.933162    0.959187
H      -2.090820   -3.022541   -0.417368
H      -1.525253   -5.189640   -0.211750
