19

C      -0.331651    1.167654    0.056657
O       0.073926   -0.184301   -0.012908
C       0.801886   -0.630488    1.131012
C      -0.101779   -0.843711    2.383544
O       0.196690   -2.123368    2.929235
C       0.932238   -2.872305    2.003572
C       0.357719   -3.097180    0.627898
O      -0.976258   -2.790097    0.368687
C       1.385104   -1.999622    0.856185
H       0.532486    1.833883    0.199151
H      -0.813354    1.410264   -0.893165
H      -1.047736    1.347886    0.871224
H       1.601298    0.094817    1.339850
H       0.072349   -0.098091    3.166865
H      -1.151293   -0.798594    2.071492
H       1.555318   -3.620728    2.479916
H       0.729295   -3.973779    0.096855
H      -0.982917   -1.979318   -0.157456
H       2.363765   -2.064720    0.397083
