18

C       0.082667    1.360885    0.164977
C       1.393601    0.644763   -0.010157
C       2.237519    0.222377    1.165914
C       1.199017   -0.460298    2.109471
C       0.081021   -1.048148    1.195890
C       0.107492   -0.144850   -0.021220
N      -0.052870   -0.624419   -1.380343
C       0.956694   -0.169213   -2.010581
O       1.890608    0.575057   -1.342152
H      -0.149017    1.755756    1.148024
H      -0.281378    1.954913   -0.665329
H       2.977985   -0.503168    0.811289
H       2.777155    1.032652    1.665715
H       1.661020   -1.222692    2.741355
H       0.771839    0.287402    2.785439
H       0.334044   -2.064309    0.875266
H      -0.884115   -1.094719    1.709291
H       1.166152   -0.309709   -3.064553
