22

C       0.025180    1.581426   -0.002137
C       0.000452    0.051501    0.016335
C      -1.416782   -0.528008   -0.004506
O      -2.133319   -0.128355   -1.172510
C      -1.429559   -2.064628    0.148615
O      -0.714111   -2.464416    1.317254
C      -2.846774   -2.644097    0.126411
C      -2.871583   -4.174025    0.144460
H       1.050348    1.960567   -0.050753
H      -0.526854    1.969681   -0.862584
H      -0.439776    1.993308    0.900632
H       0.545597   -0.343524   -0.855029
H       0.519553   -0.338106    0.896879
H      -1.993388   -0.099385    0.829243
H      -1.602553   -0.380253   -1.937096
H      -0.852265   -2.493170   -0.684697
H      -1.245583   -2.212628    2.081387
H      -3.392673   -2.249258    0.997387
H      -3.365065   -2.254247   -0.754514
H      -2.320334   -4.562516    1.005301
H      -3.896810   -4.553138    0.192063
H      -2.405836   -4.585692   -0.757998
