27

C      -0.301412    1.567422   -0.170200
C       0.063181    0.090571    0.017779
C       0.877937   -0.505911   -1.150641
C       2.335951   -0.020020   -1.114484
C       0.727270   -2.058544   -1.241964
C       1.196865   -2.773043    0.028925
O      -0.672143   -2.374711   -1.339248
C       1.452943   -2.600381   -2.497378
C       1.188798   -4.077575   -2.808416
H       0.583480    2.206049   -0.260968
H      -0.906502    1.713060   -1.072582
H      -0.883494    1.937034    0.680038
H       0.627503   -0.023707    0.952063
H      -0.854982   -0.492893    0.132331
H       0.430543   -0.123716   -2.083699
H       2.865231   -0.416263   -0.240971
H       2.895618   -0.308667   -2.007666
H       2.375504    1.071343   -1.049517
H       0.674467   -2.387920    0.907209
H       0.982885   -3.841918   -0.038761
H       2.272267   -2.647298    0.180049
H      -1.017402   -1.927195   -2.120189
H       1.137114   -1.990568   -3.356723
H       2.530945   -2.438431   -2.394025
H       1.630750   -4.737236   -2.055685
H       0.115890   -4.282272   -2.841588
H       1.623364   -4.348764   -3.775518
