19

C       0.011387    1.549257   -0.045234
C      -0.010053    0.030602   -0.027095
C       0.343895   -0.612589   -1.374667
C      -0.175352   -2.048728   -1.430876
O       0.045674   -2.734723   -0.203056
C      -0.232698   -1.939932    0.906849
C       0.615982   -0.672698    1.217340
O      -0.507024   -0.204207    2.052299
C      -1.141646   -0.671485    0.808635
H       0.990217    1.917913   -0.373043
H      -0.735341    1.940394   -0.745622
H      -0.197029    1.949593    0.948310
H      -0.094089   -0.038915   -2.199797
H       1.432339   -0.583219   -1.511401
H      -1.255736   -2.036730   -1.645411
H       0.314087   -2.637283   -2.210984
H      -0.423624   -2.575085    1.771930
H       1.624526   -0.584180    1.624941
H      -2.226722   -0.576541    0.740286
