15

C       0.009026    1.532250    0.036060
N       0.068298    0.075212   -0.011287
C       0.773218   -0.562327   -1.126180
C       1.344163   -1.623908   -0.272598
C       2.298353   -0.542333   -0.866871
C       2.445099   -0.025621    0.528474
O       3.357954    0.405036    1.175648
C       1.043113   -0.603597    0.888433
H       0.986272    2.027188   -0.086427
H      -0.659659    1.886610   -0.754609
H      -0.412669    1.840254    0.997796
H       0.380847   -0.607973   -2.135273
H       1.412739   -2.698313   -0.319773
H       3.042765   -0.661150   -1.641210
H       0.748822   -0.804754    1.915986
