18

C      -0.065417    1.598013    0.007757
C      -0.061392    0.073151    0.027943
O      -1.378113   -0.387640   -0.162781
C       1.034110   -0.569728   -0.862085
O       1.015127   -0.944457   -1.999395
C       1.967725   -0.806260    0.340041
C       0.732450   -0.544713    1.216189
C       0.554895   -0.288916    2.655115
N       0.159766   -1.585696    2.058833
H       0.927882    2.006341    0.214446
H      -0.402666    1.959624   -0.967350
H      -0.754717    1.967982    0.773088
H      -1.350799   -1.144127   -0.760290
H       2.411651   -1.802144    0.400301
H       2.753565   -0.049195    0.428550
H       1.405959   -0.338257    3.329209
H      -0.226290    0.403766    2.960218
H      -0.849126   -1.594958    1.905290
