14

C       0.071173    1.536916    0.014802
C      -0.015399    0.043849   -0.019615
C      -1.174136   -0.673089    0.044914
N      -2.437582   -0.125452    0.189554
C      -1.094559   -2.114865    0.031886
O      -2.055105   -2.855376    0.103786
N       0.224055   -2.664686   -0.082147
N       1.263056   -2.018836   -0.163090
O       1.177431   -0.561896   -0.126911
H       1.060196    1.845888    0.358639
H      -0.090026    1.970190   -0.980124
H      -0.687930    1.942942    0.689982
H      -2.626410    0.726216   -0.316912
H      -3.155715   -0.830051    0.071842
