27

C      -0.097644    1.532277    0.171771
C       0.193679    0.028276    0.118216
C       0.722303   -0.478036   -1.243203
C       2.170506   -0.004434   -1.447945
C       0.553798   -2.021263   -1.368881
C      -0.929737   -2.399407   -1.533588
C       1.392158   -2.622838   -2.512725
C       1.287043   -4.138378   -2.651382
O       2.274175   -4.546384   -3.590300
H       0.795846    2.135573   -0.015743
H      -0.848827    1.813305   -0.575033
H      -0.484161    1.820486    1.154639
H       0.926998   -0.231981    0.894239
H      -0.724033   -0.505599    0.385204
H       0.106668   -0.022106   -2.034282
H       2.851327   -0.511945   -0.753495
H       2.529329   -0.188390   -2.463192
H       2.258814    1.070412   -1.265754
H       0.917559   -2.463340   -0.427811
H      -1.084335   -3.478996   -1.450619
H      -1.565861   -1.927998   -0.780239
H      -1.297808   -2.086365   -2.518401
H       1.109013   -2.162387   -3.468912
H       2.452457   -2.401308   -2.362238
H       1.454451   -4.612764   -1.669059
H       0.283359   -4.434883   -2.989422
H       2.179276   -5.492635   -3.732093
