13

C      -0.087656   -1.202845    0.238646
C      -0.017862   -0.005730    0.155721
C       0.037157    1.425822    0.032402
O       0.692329    2.162886    1.082081
C       1.305798    2.152114   -0.195352
C       2.625713    1.410978   -0.319651
C       3.756420    2.222421    0.129048
N       4.645847    2.874183    0.472967
H      -0.152540   -2.260231    0.321754
H      -0.877508    1.894306   -0.328699
H       1.255314    3.098927   -0.733638
H       2.582034    0.487064    0.263864
H       2.788894    1.130810   -1.367271
