14

N       0.108960   -1.130139    0.003539
C       0.072376    0.024716    0.007101
C       0.022438    1.465847    0.037363
C      -1.066912    2.071105   -0.687253
N      -1.924299    2.590947   -1.262705
C       0.447062    2.258021    1.296356
C       1.613939    1.546557    1.988784
N       2.360688    1.499310    0.684254
C       1.314355    2.309110    0.072139
H      -0.249422    2.961895    1.730367
H       2.083971    2.203535    2.725305
H       1.424986    0.564662    2.430238
H       3.250957    1.980880    0.724133
H       1.484526    3.067361   -0.681893
