17

C      -0.113607    1.504155    0.117106
C      -0.014103    0.023247   -0.035272
C       0.023561   -0.793994   -1.141470
C      -0.029043   -0.378786   -2.580893
C       0.124786   -2.152355   -0.678391
C       0.144232   -2.102237    0.690751
O       0.225580   -3.047776    1.663855
N       0.061306   -0.799818    1.084587
H       0.751611    1.929180    0.643651
H      -0.162987    1.983612   -0.862761
H      -1.010993    1.807685    0.673044
H       0.866638   -0.698239   -3.127844
H      -0.890270   -0.819050   -3.098494
H      -0.105490    0.706828   -2.688358
H       0.175699   -3.041716   -1.288584
H       0.277855   -3.908871    1.238962
H       0.056713   -0.499700    2.043792
