14

N      -0.008226    1.200705   -0.307034
C       0.014493   -0.007485   -0.000426
O       1.013236   -0.818360    0.479794
C       0.144389   -1.983517    0.526896
C      -1.053884   -1.130686   -0.019416
C      -2.147746   -0.934913    0.921880
C      -3.031875   -0.783737    1.719550
C      -1.513522   -1.499786   -1.351102
C      -1.867728   -1.820597   -2.452208
H       0.898281    1.648892   -0.165460
H       0.491342   -2.768839   -0.145741
H       0.018958   -2.348156    1.547117
H      -3.822820   -0.637768    2.413366
H      -2.192815   -2.089653   -3.426993
