21

O       0.032589    1.409772   -0.170968
C       0.014779    0.000001   -0.006249
C       0.630552   -0.508662    1.340061
C      -0.516116   -1.328308    1.973625
C      -1.225754   -1.895788    0.723117
C      -1.436379   -0.513461    0.071219
C      -2.168110    0.262233    1.191789
C      -1.573272   -0.343567    2.502857
O      -2.525804   -1.090695    3.252105
H       0.950580    1.696012   -0.189768
H       0.521059   -0.477865   -0.857683
H       1.512056   -1.132992    1.167535
H       0.936227    0.337480    1.965015
H      -0.200224   -2.045833    2.732025
H      -0.592987   -2.564745    0.131073
H      -2.160223   -2.405967    0.966011
H      -1.950342   -0.494982   -0.891232
H      -2.010060    1.338463    1.109141
H      -3.243764    0.062433    1.157574
H      -1.116669    0.427638    3.140260
H      -3.266348   -0.509081    3.450744
