16

C       0.121872    1.474824   -0.122818
C      -0.089099   -0.019791    0.129312
O       0.336520   -0.808971   -0.994314
C       1.641596   -1.313821   -0.779878
C       1.859429   -1.347522    0.732581
O       2.764642   -1.885005    1.316532
C       0.717581   -0.549334    1.293987
N       0.391838   -0.284027    2.501042
O       1.230067   -0.839218    3.441649
H       1.182831    1.708441   -0.258039
H      -0.418362    1.779311   -1.023107
H      -0.249750    2.052184    0.728841
H      -1.156115   -0.221183    0.267191
H       1.720598   -2.316308   -1.211694
H       2.417083   -0.682593   -1.243816
H       0.832846   -0.549426    4.271800
