18

O       0.132068    1.384010   -0.095689
C       0.040106    0.003797   -0.049275
C       0.196880   -0.829202   -1.313750
N      -0.461781   -1.948070   -0.533796
C       0.621444   -2.205267    0.444748
C       0.788835   -0.776692    1.103425
C      -0.218978   -0.760539    2.223484
C      -1.442862   -0.860037    1.674604
C      -1.280712   -0.790415    0.197817
H      -0.103474    1.726042    0.775347
H      -0.457827   -0.488519   -2.119195
H       1.191728   -1.058882   -1.703784
H       0.335884   -2.967547    1.170912
H       1.515255   -2.536384   -0.090271
H       1.805885   -0.458190    1.330856
H       0.029152   -0.817516    3.276644
H      -2.385145   -0.984015    2.192558
H      -2.143121   -0.545439   -0.419331
