19

O       0.254539    0.134279   -0.202974
C       0.036665    1.296709   -0.011219
C      -1.192036    2.153866   -0.082702
C      -1.258597    3.021677    1.170213
C      -0.295884    3.404204    0.104002
C       0.975694    2.532913    0.185100
C       1.905235    2.634088    1.363494
C       3.269857    1.994324    1.294536
C       3.144640    3.496030    1.285351
H      -2.063890    1.994721   -0.704395
H      -2.163389    3.616707    1.239684
H      -0.917171    2.631202    2.124134
H      -0.374004    4.333337   -0.444985
H       1.553095    2.616227   -0.745465
H       1.418309    2.598602    2.333655
H       3.654391    1.512231    2.186052
H       3.546956    1.498548    0.370484
H       3.339935    4.017630    0.353871
H       3.443981    4.045249    2.171080
