17

O      -0.089103    1.338620    0.209171
C      -0.003179   -0.001094   -0.012387
C       0.079025   -0.777982   -1.138249
C       0.217074   -0.744087   -2.633773
C      -0.091586   -2.232183   -2.983096
N       0.305749   -3.006605   -1.781304
C       0.126820   -2.129918   -0.693262
C       0.059802   -2.167109    0.671365
N      -0.006212   -0.823382    1.078685
H      -0.071306    1.783785   -0.642786
H      -0.470250   -0.070437   -3.156443
H       1.235348   -0.480422   -2.951372
H      -1.168233   -2.335461   -3.188664
H       0.457012   -2.579802   -3.863275
H      -0.176025   -3.892978   -1.703683
H       0.068268   -2.964617    1.393407
H      -0.185156   -0.502352    2.013497
