19

C      -0.032295    1.409067   -0.072246
C       1.339055    0.787870    0.087950
C       2.063285    0.968602    1.405973
O       2.710386   -0.190084    1.931821
C       2.115766   -1.458423    1.768411
C       0.610256   -1.589260    2.015692
O      -0.116692   -0.448038    2.477102
C      -0.365448   -0.914342    1.144727
C       0.107610   -0.088657   -0.008582
H      -0.443920    1.906433    0.799960
H      -0.297127    1.863864   -1.020043
H       1.976191    0.784099   -0.791685
H       2.870521    1.697950    1.274540
H       1.370746    1.362697    2.154105
H       2.315823   -1.861857    0.760951
H       2.643960   -2.103204    2.478586
H       0.315937   -2.525791    2.492861
H      -1.350882   -1.366082    1.020328
H      -0.014378   -0.613288   -0.953691
