21

C       0.218101    1.587722   -0.224473
C      -0.053238    0.111248    0.065946
O       0.460400   -0.696977   -1.001994
C       1.324261   -1.702640   -0.491144
C       1.419288   -1.449130    0.995624
C       2.290827   -2.256725    1.906940
C       1.835407   -3.711764    2.054345
O       2.750598   -4.352321    2.927933
C       0.626166   -0.424029    1.296701
H       1.294603    1.778748   -0.261470
H      -0.219557    1.867388   -1.187007
H      -0.224733    2.221234    0.551594
H      -1.145861   -0.037351    0.123551
H       0.916024   -2.701385   -0.719973
H       2.307334   -1.641281   -0.985614
H       3.322959   -2.269185    1.532217
H       2.318873   -1.803676    2.902865
H       0.809581   -3.734641    2.454208
H       1.814674   -4.203345    1.068999
H       2.473496   -5.266474    3.037904
H       0.475551    0.001561    2.281761
