23

C       0.804751    1.350640    0.742609
O       0.636396   -0.027621    0.514278
C       0.194221   -0.365870   -0.797386
C       1.338366   -0.283870   -1.811603
C      -0.413253   -1.768026   -0.677477
C      -1.137290   -2.239110   -1.925609
C      -2.091661   -3.448734   -1.797631
C      -3.166576   -2.472784   -2.315593
O      -2.240521   -1.367421   -2.290016
H       1.624311    1.786076    0.151607
H      -0.114600    1.915195    0.519898
H       1.044383    1.474272    1.802160
H      -0.607651    0.326791   -1.098319
H       2.136757   -0.983656   -1.543231
H       0.988019   -0.522315   -2.820234
H       1.764741    0.722589   -1.847876
H       0.377899   -2.487586   -0.427160
H      -1.116980   -1.753591    0.161943
H      -0.438988   -2.334435   -2.768977
H      -1.871014   -4.308306   -2.431934
H      -2.241779   -3.787609   -0.770448
H      -3.527787   -2.678339   -3.331753
H      -4.030529   -2.300075   -1.663370
