17

O      -0.270540    1.459380   -0.156735
C      -0.009617    0.069833   -0.067061
C      -1.188644   -0.627708    0.684119
C      -0.346420   -0.568670    2.017776
C       0.840191   -0.399512    1.095417
C       1.956038   -1.028157    0.710585
C       2.008409   -1.030584   -0.788338
O       0.947882   -1.859106   -1.340703
C       0.731742   -0.456527   -1.288521
H       0.577580    1.917373   -0.171725
H      -2.126106   -0.069405    0.671824
H      -1.333760   -1.651712    0.339463
H      -0.590059    0.328283    2.592672
H      -0.356510   -1.440320    2.674497
H       2.609970   -1.638894    1.322307
H       2.930054   -1.044985   -1.362097
H       0.639878    0.058036   -2.242313
