23

C      -0.077209    1.587265    0.068321
C       0.027832    0.055772    0.037269
C       0.870005   -0.448693    1.217702
C      -1.379814   -0.570208    0.007528
C      -1.466862   -2.100087   -0.153987
C      -2.926184   -2.560834   -0.029234
C      -0.861750   -2.586055   -1.478689
H       0.913312    2.054212    0.052975
H      -0.640775    1.966363   -0.790842
H      -0.589422    1.927327    0.976769
H       0.548069   -0.218114   -0.890618
H       0.378320   -0.222410    2.171953
H       1.034252   -1.529540    1.176958
H       1.853563    0.032888    1.230578
H      -1.900331   -0.286767    0.934016
H      -1.950919   -0.106469   -0.810054
H      -0.904653   -2.567211    0.665981
H      -3.544219   -2.127149   -0.824993
H      -3.007045   -3.650409   -0.104698
H      -3.360213   -2.257253    0.929379
H       0.202477   -2.346005   -1.560329
H      -0.962363   -3.671943   -1.579667
H      -1.373390   -2.125530   -2.332910
