18

C       0.782952   -0.461209    1.222397
C      -0.046597   -0.041356    0.013551
O       0.630926   -0.297414   -1.215331
C      -1.472730   -0.655480   -0.011069
C      -2.221326   -0.246982   -1.314770
O      -2.061699    1.119705   -1.630401
C      -1.441751   -2.111205    0.085161
C      -1.392845   -3.313728    0.097663
H       1.762674    0.022223    1.184725
H       0.288595   -0.171914    2.155734
H       0.927716   -1.546162    1.242098
H      -0.183362    1.043740    0.029632
H       0.730788   -1.254084   -1.296053
H      -2.016880   -0.244041    0.849059
H      -1.875113   -0.889698   -2.132807
H      -3.292393   -0.424198   -1.182201
H      -1.180304    1.209615   -2.010384
H      -1.371752   -4.375029    0.135330
