17

N      -0.149983   -1.148584    0.066690
C      -0.072796    0.003904    0.068354
C       0.026844    1.459897    0.092075
C       1.462605    1.990288    0.059977
C       2.594218    1.158441    0.493658
O       2.316622    1.377088   -0.900316
C       1.535115    3.491441    0.114921
C       2.709207    4.210782   -0.426503
N       1.418086    4.261320   -1.138722
H      -0.520725    1.868641   -0.765398
H      -0.477638    1.832919    0.991164
H       3.491311    1.647160    0.867111
H       2.422867    0.141024    0.837313
H       0.989035    3.933720    0.946293
H       3.020212    5.146183    0.028652
H       3.503947    3.614008   -0.862941
H       1.468179    3.613655   -1.924166
