18

O       0.306537    1.361058    0.004947
C       0.080650   -0.022781   -0.145096
C      -1.390047   -0.399619   -0.227998
C      -2.152520    0.069541   -1.449777
O      -2.033949    1.480865   -1.654212
C      -2.816545    2.272882   -0.874416
N      -2.646647    3.519720   -0.908981
C      -1.888738   -1.590456    0.475925
O      -2.126649   -0.284861    1.000391
H      -0.104574    1.817623   -0.738752
H       0.595796   -0.432853   -1.031179
H       0.514536   -0.500840    0.738171
H      -1.740876   -0.384403   -2.355854
H      -3.207570   -0.216566   -1.363087
H      -3.544218    1.712872   -0.276449
H      -3.311942    3.981785   -0.292813
H      -2.766555   -2.116676    0.101629
H      -1.191562   -2.204599    1.043699
