20

O      -0.330564    0.043856    0.003180
C      -0.083552    1.233351    0.009297
N       1.148771    1.801405    0.001931
C       2.432868    1.132066   -0.014728
C       2.615758   -0.168911    0.731863
C       2.601827   -0.157910   -0.783369
C       3.598141    2.085399   -0.018459
C       3.595971    3.396205   -0.764835
C       3.609909    3.384962    0.747239
H      -0.876961    2.008359    0.022049
H       1.163125    2.807974    0.008714
H       3.557632   -0.313705    1.250618
H       1.747672   -0.597145    1.213920
H       1.724953   -0.579207   -1.255540
H       3.533969   -0.295062   -1.321422
H       4.541073    1.547583   -0.031177
H       4.499689    3.688791   -1.287476
H       2.687048    3.705096   -1.271432
H       2.710467    3.686080    1.274992
H       4.523122    3.669917    1.257440
