18

C      -0.238813    1.435636    0.172180
C       0.121547   -0.046156    0.014677
N       0.795330   -0.565331    1.196610
C       0.106753   -1.144503    2.081475
N       0.595254   -1.694130    3.264817
C      -0.447410   -2.358676    3.916702
N      -0.171956   -3.121929    5.050275
C      -1.564370   -2.124473    3.215124
O      -1.252817   -1.367962    2.080813
H       0.651050    2.022454    0.419029
H      -0.670118    1.831791   -0.753576
H      -0.969279    1.572960    0.975852
H      -0.785291   -0.617343   -0.230015
H       0.809415   -0.157072   -0.832026
H       1.557255   -1.986043    3.320129
H       0.283448   -2.581650    5.779554
H      -1.006583   -3.552441    5.427191
H      -2.599470   -2.368358    3.369241
