21

C      -0.192293    1.539907   -0.154501
C       0.038355    0.047951   -0.014123
C       1.382795   -0.621531   -0.173972
C       2.624412    0.224576    0.053490
O       2.426917    0.897680    1.296867
C       1.572658    0.096640    2.126123
C       0.920811    1.031904    3.137476
O       1.894731    1.699513    3.917809
C       0.674118   -0.661657    1.165941
H       0.644555    2.124461    0.229167
H      -0.336130    1.800855   -1.209206
H      -1.095842    1.846858    0.383703
H      -0.770290   -0.540197   -0.443769
H       1.479028   -1.502706   -0.798289
H       3.515573   -0.421064    0.094777
H       2.795619    0.994608   -0.706731
H       2.185188   -0.631566    2.685367
H       0.262779    1.742347    2.616643
H       0.303806    0.447807    3.828766
H       2.516590    2.085418    3.290016
H       0.217294   -1.574646    1.531359
