18

O       0.029622    1.400924    0.064283
C       0.051511   -0.012623   -0.008716
C      -1.353540   -0.613280    0.034805
N      -2.284170   -0.055046   -0.968971
C      -1.759972   -1.428783   -1.136791
C      -0.634887   -1.627197   -2.149051
C      -0.000811   -0.289510   -2.568249
C       0.796090   -0.512220   -1.267972
O       0.573255   -1.948802   -1.387156
H      -0.710358    1.679409   -0.491029
H       0.607647   -0.365404    0.866594
H      -1.755265   -0.850904    1.015162
H      -3.236998   -0.085826   -0.616308
H      -2.446387   -2.257025   -0.986996
H      -0.857229   -2.386151   -2.902087
H       0.634455   -0.408691   -3.446776
H      -0.642934    0.583673   -2.662539
H       1.855268   -0.246606   -1.237337
