16

C      -0.078541    1.468743   -0.009967
N       0.109124    0.025349   -0.006632
C       0.701054   -0.524992    1.203788
C      -0.215824   -0.565147    2.437678
C       1.211093   -1.927581    0.869052
F       2.144614   -1.912430   -0.083826
F       1.747942   -2.522141    1.948966
F       0.203679   -2.713417    0.440347
H       0.896921    1.962029    0.065930
H      -0.524640    1.766885   -0.962900
H      -0.717094    1.862627    0.798940
H      -0.763450   -0.451187   -0.206405
H       1.595949    0.066499    1.431558
H       0.311864   -0.945443    3.315585
H      -0.581595    0.438532    2.666968
H      -1.078197   -1.212704    2.249773
