21

C       0.817475   -0.451615    1.293932
C       0.037362   -0.038412    0.039670
C      -1.387653   -0.607305   -0.005698
O      -2.108444   -0.114316    1.102014
C      -2.100378   -0.602794   -1.433921
C      -1.268094   -1.898642   -1.726565
C      -1.565367   -2.160136   -0.210805
C      -3.097417   -2.255329   -0.270000
C      -3.442752   -1.243448   -1.070167
H       1.788807    0.050534    1.333108
H       0.261158   -0.199539    2.200244
H       1.000260   -1.530959    1.306850
H      -0.050814    1.058817    0.008799
H       0.604896   -0.307436   -0.853761
H      -1.944814    0.832365    1.167801
H      -2.083541    0.267347   -2.091873
H      -1.722136   -2.603373   -2.423977
H      -0.217670   -1.738095   -1.976378
H      -1.015742   -2.890590    0.382803
H      -3.712518   -2.968578    0.258924
H      -4.420981   -0.899330   -1.373481
