19

C      -0.022666    1.493980    0.008104
C       0.005563    0.037587    0.020363
C       0.073677   -1.167315    0.019332
C       0.057510   -2.618476    0.036049
C       0.312926   -3.327384    1.383285
C      -0.698680   -2.888096    2.396988
C      -1.098402   -3.922271    1.381833
C      -1.384864   -3.293203    0.015093
O      -2.505432   -2.475187   -0.163421
H       0.959890    1.904496   -0.249620
H      -0.741853    1.872767   -0.726368
H      -0.303440    1.897686    0.987044
H       0.679948   -3.019119   -0.768496
H       1.250061   -3.796406    1.654134
H      -0.548568   -3.270307    3.401268
H      -1.103777   -1.880220    2.364894
H      -1.416458   -4.914400    1.678863
H      -1.425505   -4.058570   -0.764778
H      -2.285678   -1.597604    0.173472
