18

C       0.028849    1.570895   -0.101584
O       1.363240    1.928073    0.331960
C       1.989056    0.749832    0.554546
N       1.374780   -0.341854    0.368221
C       0.014304    0.009670   -0.084070
C      -1.084043   -0.570137    0.852419
C      -2.197880   -0.938133   -0.096570
C      -1.781840   -0.956204   -1.362038
C      -0.319120   -0.603364   -1.474240
H      -0.683924    2.020520    0.595131
H      -0.127819    1.996367   -1.096595
H       3.015757    0.845949    0.890698
H      -0.695509   -1.454934    1.372941
H      -1.381234    0.143895    1.629420
H      -3.195261   -1.195072    0.242303
H      -2.385811   -1.230232   -2.219796
H      -0.091312    0.087864   -2.294120
H       0.294950   -1.497957   -1.639730
