18

O      -0.122904    1.471129    0.103075
C       0.016541    0.059625    0.086610
C      -1.377028   -0.541623   -0.126076
C      -1.378007   -2.036163   -0.137468
C      -1.331223   -2.931841   -1.189815
C      -1.307413   -4.241459   -0.634824
O      -1.265418   -5.434705   -1.299467
C      -1.338941   -4.124574    0.734823
N      -1.377628   -2.772709    1.017097
H       0.751690    1.860119    0.193838
H       0.683084   -0.275310   -0.722616
H       0.440125   -0.314388    1.032776
H      -2.038930   -0.155864    0.659776
H      -1.771761   -0.167747   -1.075577
H      -1.318175   -2.672068   -2.238699
H      -1.267027   -5.253394   -2.243237
H      -1.347475   -4.873698    1.507560
H      -1.430876   -2.384254    1.942072
