14

O       0.155184    1.512736   -0.070338
C       0.072829    0.107139   -0.003430
C       0.623739   -0.554750   -1.198559
C       1.074743   -1.088810   -2.175292
C       0.780546   -0.385381    1.234592
N       1.664173    0.275352    1.908455
C       2.044745   -0.596243    2.923915
C       1.351573   -1.749372    2.792928
O       0.528712   -1.624192    1.703284
H       1.001762    1.759267    0.328115
H      -0.991144   -0.151891    0.076634
H       1.471984   -1.557622   -3.041805
H       2.779494   -0.323509    3.663954
H       1.301999   -2.681781    3.327401
