19

C      -0.044729    1.554160    0.111915
C      -0.052474    0.018777   -0.019082
C       0.675380   -0.488005   -1.241651
C      -0.000865   -0.831907   -2.403684
C       0.690628   -1.299580   -3.521090
C       2.069634   -1.407155   -3.421080
N       2.759547   -1.082359   -2.325179
C       2.083292   -0.636351   -1.261872
N       2.849451   -0.381243   -0.133312
H       0.973503    1.956987    0.148010
H      -0.542546    2.017405   -0.745312
H      -0.563064    1.873129    1.021627
H       0.385195   -0.429446    0.881675
H      -1.091679   -0.325908   -0.056250
H      -1.083671   -0.740432   -2.430239
H       0.174673   -1.573974   -4.433328
H       2.659408   -1.769642   -4.260180
H       3.836920   -0.336020   -0.339875
H       2.530369    0.347143    0.484786
