21

C      -0.101842    1.557633    0.210806
C      -0.002396    0.053800    0.058046
C      -1.338663   -0.685588   -0.104530
C      -1.018124   -2.138355    0.277819
C      -0.018764   -1.997948    1.444554
O       0.698455   -3.172433    1.771093
C       0.846410   -0.776074    1.069699
C       1.806834   -0.972491   -0.114693
O       0.911218   -0.307127   -1.024677
H       0.889918    2.004261    0.326819
H      -0.569772    1.998904   -0.675844
H      -0.707027    1.822513    1.084284
H      -2.078754   -0.259954    0.584413
H      -1.726934   -0.574946   -1.121068
H      -1.895026   -2.730181    0.550225
H      -0.526532   -2.643264   -0.563531
H      -0.572573   -1.751746    2.358696
H       1.124054   -3.492626    0.968602
H       1.262479   -0.264598    1.938187
H       2.765290   -0.446069   -0.022895
H       2.015574   -2.006816   -0.423483
