18

N       0.096341    1.264508   -0.274969
C      -0.045848    0.044009    0.329817
O       0.798717   -0.401585    1.088668
C      -1.274276   -0.729771   -0.024929
C      -1.773273   -1.723467    1.028159
C      -1.147752   -2.235590   -0.224284
O      -1.955831   -2.647287   -1.288195
C      -2.925028   -1.628896   -1.526756
C      -2.282733   -0.293727   -1.078856
H       0.869339    1.831850    0.034749
H      -0.678416    1.728545   -0.715545
H      -1.160788   -1.769733    1.920864
H      -2.842258   -1.822646    1.180258
H      -0.186387   -2.732312   -0.201798
H      -3.183087   -1.653312   -2.588442
H      -3.839517   -1.828866   -0.951869
H      -3.040558    0.407637   -0.714431
H      -1.756911    0.173334   -1.918938
