17

O      -1.081335    0.266685   -0.138202
C       0.142015   -0.411682   -0.129896
C       1.190805    0.378211   -0.895913
O       0.913201    1.418303   -1.443425
C       0.621866   -0.667546    1.280046
C      -0.218323   -0.736719    2.509988
C       0.969691    0.209631    2.463985
C       2.254680   -0.607748    2.516517
O       1.809443   -1.458368    1.416240
H      -0.927248    1.061673   -0.674947
H       0.058273   -1.397683   -0.625938
H       2.210699   -0.048069   -0.910404
H      -1.181534   -0.246688    2.425865
H      -0.188933   -1.633107    3.124249
H       0.881668    1.277928    2.604723
H       3.150777   -0.049104    2.225392
H       2.455443   -1.186302    3.425264
