17

C      -0.088745    1.517075    0.154929
C       0.033547    0.008004   -0.037097
C       0.755996   -0.378499   -1.318403
O       1.190191    0.435685   -2.104990
C       0.895010   -1.807300   -1.543929
C       1.004421   -2.995304   -1.720439
C       1.137226   -4.435435   -1.936923
C       1.844392   -4.788571   -3.168231
C       2.422900   -5.091506   -4.174858
H       0.897016    1.987708    0.188997
H      -0.637680    1.972985   -0.672843
H      -0.614183    1.743387    1.086736
H       0.568416   -0.464304    0.798174
H      -0.950946   -0.479119   -0.053772
H       1.653101   -4.879592   -1.074108
H       0.135989   -4.888621   -1.942957
H       2.936752   -5.350974   -5.067363
