22

C      -0.029154    1.526781   -0.065096
C      -0.086989    0.000837   -0.126198
O       0.901385   -0.587107    0.720095
C      -1.487537   -0.544319    0.186886
C      -1.583045   -2.066362    0.050957
C      -2.951577   -2.610579    0.471642
N      -3.045855   -4.056874    0.344866
C      -3.879331   -4.677778   -0.531811
O      -4.665159   -4.123045   -1.270960
H       0.984891    1.877510   -0.274856
H      -0.712078    1.979833   -0.790777
H      -0.317267    1.886875    0.931079
H       0.197504   -0.326012   -1.134649
H       0.762465   -0.242316    1.609566
H      -1.758994   -0.241953    1.210215
H      -2.216462   -0.061881   -0.477143
H      -1.389260   -2.360183   -0.988062
H      -0.792536   -2.523646    0.657716
H      -3.169608   -2.318451    1.507815
H      -3.745104   -2.202522   -0.159061
H      -2.413287   -4.630886    0.879889
H      -3.764174   -5.779713   -0.492205
