21

C      -0.085478   -1.250936   -0.090961
C      -0.055960   -0.052911    0.004807
C       0.015341    1.398797    0.114193
C       1.436215    1.955393   -0.118954
C       1.491381    3.474451    0.008176
C       1.305663    4.148240    1.416907
C       2.640340    4.878407    1.223091
C       3.748645    3.881888    1.046038
C       2.849865    4.181284   -0.123518
H      -0.123735   -2.308561   -0.173688
H      -0.676530    1.853660   -0.607325
H      -0.338872    1.707078    1.106658
H       2.121756    1.485420    0.594470
H       1.776104    1.656601   -1.117838
H       0.777261    3.917719   -0.695181
H       0.438738    4.811150    1.454788
H       1.262558    3.471957    2.278763
H       2.834225    5.909897    1.490457
H       4.746355    4.302633    0.970407
H       3.714587    2.921738    1.555712
H       3.247301    4.587352   -1.046556
