13

C      -0.044577    1.570424    0.011042
C       1.474090    1.229843   -0.006726
C       1.168299    0.144311    1.066374
C       0.039125    0.016209    0.002426
C       1.146212    0.154219   -1.082678
H      -0.432979    2.036523    0.921254
H      -0.452292    2.045729   -0.885916
H       2.307116    1.934408   -0.012140
H       1.873473   -0.688931    1.137331
H       0.872096    0.502003    2.056823
H      -0.793935   -0.688316    0.007641
H       0.829989    0.520714   -2.063620
H       1.849712   -0.678280   -1.175642
