11

N      -0.221050    1.303158    0.011737
C      -0.027543    0.066170    0.003263
O      -1.153032   -0.747837    0.009703
C      -0.967404   -2.077465    0.000251
O       0.075162   -2.670573   -0.013429
C      -2.321984   -2.806340    0.009356
O      -3.386039   -2.256362    0.022912
C      -2.188827   -4.270542   -0.000334
N      -2.146215   -5.425589   -0.007366
H       0.668555    1.800398    0.005038
H       0.903134   -0.500078   -0.009684
