20

C       0.076556    1.358196   -0.567503
C      -0.038756    0.151806    0.375629
C      -1.421490   -0.483195    0.343197
C      -2.516341    0.322821    1.012143
O      -1.796570   -1.079015   -0.913161
C      -1.582584   -1.962395    0.193159
C      -0.447953   -2.960680    0.072466
C      -2.798622   -2.570031    0.724285
N      -3.735552   -3.086925    1.161890
H       1.096025    1.753636   -0.556384
H      -0.165299    1.064759   -1.592957
H      -0.596106    2.171185   -0.279643
H       0.723237   -0.581328    0.104212
H       0.173785    0.457282    1.407112
H      -2.591639    1.311759    0.551029
H      -3.485662   -0.169061    0.922574
H      -2.292988    0.462045    2.074851
H       0.415950   -2.512108   -0.416837
H      -0.153548   -3.331151    1.058948
H      -0.773012   -3.815325   -0.527692
