15

O       0.412669    1.300930    0.035828
C       0.161352   -0.019790   -0.066773
C       0.303115   -0.949902   -1.075639
C      -0.167315   -2.156951   -0.495218
C      -0.210608   -3.516302   -1.126640
C       1.184643   -4.110607   -1.245190
O       1.671151   -4.520558   -2.266286
N      -0.557475   -1.988025    0.763453
N      -0.346105   -0.666947    1.004202
H       0.773561    1.614588   -0.799236
H       0.679747   -0.788523   -2.072631
H      -0.801316   -4.173663   -0.477111
H      -0.663696   -3.497416   -2.121625
H       1.745322   -4.133036   -0.283412
H      -0.581377   -0.269836    1.897788
