18

C       0.396498    1.524540   -0.040594
C      -0.165773    0.103471    0.098042
O      -1.591510    0.146647    0.173540
C       0.191806   -0.813370   -1.098832
C       1.378449   -1.698248   -0.617767
C       1.278074   -1.606378    0.897855
C       0.454868   -0.634003    1.271164
C       1.332045   -3.069972   -1.127336
N       1.300325   -4.154111   -1.526799
H       1.479845    1.511807   -0.195440
H      -0.074756    2.031851   -0.887947
H       0.201461    2.111314    0.865264
H      -1.839770    0.821282    0.814697
H      -0.677916   -1.441295   -1.300265
H       0.430096   -0.257756   -2.007744
H       2.335444   -1.272661   -0.951106
H       1.852969   -2.255004    1.547450
H       0.248859   -0.345282    2.296726
