18

C       0.012077    1.441044   -0.134650
C      -0.041855   -0.058459    0.075088
C       0.417461   -0.612368    1.393315
N       1.274093   -0.688336    0.200097
C       1.506940   -1.901787   -0.436974
C       0.767389   -2.363784   -1.463316
C      -0.525310   -1.761314   -1.796766
O      -1.170241   -2.059222   -2.782930
C      -1.101380   -0.796238   -0.746602
H       0.839372    1.883312    0.425978
H       0.153759    1.676794   -1.194718
H      -0.923694    1.907133    0.192237
H       0.760866    0.059196    2.175403
H      -0.031512   -1.540259    1.739451
H       2.397102   -2.421717   -0.088579
H       1.077526   -3.229608   -2.036051
H      -1.760295   -1.395763   -0.107709
H      -1.743891   -0.084756   -1.270085
