18

C      -0.057041    1.564401    0.005574
C       0.018669    0.047506    0.060441
C      -1.303449   -0.614879   -0.301665
O       1.084173   -0.480974   -0.812383
C       1.643419   -1.222536    0.270127
C       2.169148   -0.294544    1.335677
C       0.694394   -0.632433    1.271000
O       0.004641   -1.245689    2.299001
H       0.894009    2.026754    0.279652
H      -0.314200    1.893774   -1.006361
H      -0.832378    1.932183    0.686466
H      -1.607361   -0.312080   -1.308161
H      -1.209384   -1.702909   -0.275767
H      -2.088784   -0.323222    0.402599
H       1.998676   -2.228546    0.082605
H       2.682017   -0.795512    2.152063
H       2.560055    0.682138    1.065795
H       0.000548   -0.652417    3.058168
