16

C       0.071857    1.388754    0.006886
O      -0.015437   -0.022474    0.003340
C      -1.246238   -0.574062    0.011403
C      -2.437359    0.096240    0.022744
C      -3.677950   -0.610376    0.030166
C      -3.663732   -1.964931    0.025590
N      -2.465775   -2.628470    0.014298
C      -1.196393   -2.044503    0.006887
O      -0.187740   -2.727500   -0.004298
H       1.136143    1.627054   -0.000601
H      -0.405028    1.823569   -0.881590
H      -0.391271    1.818218    0.905187
H      -2.455551    1.179342    0.026174
H      -4.616204   -0.072758    0.039057
H      -4.552274   -2.582495    0.030278
H      -2.442271   -3.638627    0.010644
