20

C       0.016040    1.406796   -0.036058
O      -0.004483   -0.009149   -0.018918
C       0.629151   -0.564872    1.072101
C       2.168235   -0.443271    1.302145
C       2.031280   -1.795469    1.994298
N       0.726640   -1.845047    2.766443
C       0.077215   -0.516511    2.511975
C       0.763446   -2.124379    1.301321
C       0.201048   -3.324536    0.622412
H       1.042765    1.796953   -0.079416
H      -0.521959    1.723423   -0.931822
H      -0.482245    1.831400    0.847142
H       2.715700   -0.539890    0.360823
H       2.543554    0.411386    1.875328
H       2.811760   -2.455732    2.350358
H       0.391009    0.295143    3.178838
H      -1.007211   -0.646461    2.558337
H      -0.891704   -3.273720    0.566702
H       0.585342   -3.416942   -0.398837
H       0.471791   -4.228222    1.177060
