15

C      -0.213959    1.589468   -0.049954
N       0.008989    0.158787   -0.034351
C      -1.001450   -0.590476    0.131928
N      -0.914250   -1.961335    0.163411
C       0.253073   -2.684013    0.023373
C       1.552053   -2.323805   -0.171156
O       2.271324   -3.455814   -0.235217
N       1.384089   -4.526512   -0.074979
N       0.217532   -4.056605    0.073576
H       0.377335    2.066753    0.740292
H       0.130651    2.009255   -1.002337
H      -1.269160    1.875199    0.089919
H      -2.029418   -0.229482    0.265052
H      -1.751508   -2.502753    0.300532
H       2.049699   -1.379044   -0.271873
