17

C      -0.150305    1.659314   -0.052898
C       0.041006    0.154777   -0.059905
O      -1.184160   -0.526746    0.203640
C       0.692623   -0.558638   -1.256876
C       2.135707   -0.274607   -1.387746
O       2.654508    0.991056   -1.101758
C       1.740562   -1.270559   -0.314056
C       1.115610   -0.542872    0.835587
O       1.210629   -0.632680    2.028468
H       0.774606    2.177158   -0.306450
H      -0.930275    1.937092   -0.768741
H      -0.473142    1.983462    0.943311
H      -1.402016   -0.367908    1.129944
H       0.110181   -1.020601   -2.043427
H       2.602560   -0.759568   -2.246393
H       3.535993    0.877581   -0.730137
H       2.120796   -2.284979   -0.305566
