21

C      -0.164640    1.339663   -0.079214
O      -0.081279   -0.064011   -0.092181
C       0.714356   -0.556418   -1.152161
C       0.689318   -2.069897   -1.083673
C      -0.637792   -2.812502   -1.408186
C       0.193029   -3.876683   -2.177564
O      -0.261304   -4.345600   -3.418848
C       1.391005   -2.871354   -2.208788
O       1.385591   -2.127627   -3.422546
H       0.824966    1.808265    0.046108
H      -0.611249    1.732752   -1.006677
H      -0.797860    1.623868    0.765107
H       0.327240   -0.209651   -2.122448
H       1.749180   -0.181636   -1.064286
H       1.080825   -2.386027   -0.111835
H      -1.253650   -3.151333   -0.573696
H      -1.263650   -2.231755   -2.093305
H       0.410606   -4.756887   -1.566441
H      -0.368622   -3.561498   -3.971751
H       2.394811   -3.259976   -1.997204
H       1.780289   -2.687175   -4.099870
