16

N       0.042707    1.412331    0.150227
C      -0.034698    0.019489    0.048230
C      -1.137162   -0.798507    0.023814
C      -2.636510   -0.891517    0.036836
C      -2.839164   -2.401113   -0.002939
C      -1.659431   -3.033317   -0.029425
N      -0.619820   -2.091077   -0.014680
C       0.733120   -2.001019   -0.004714
N       1.117860   -0.737527    0.027491
H       0.973804    1.728005   -0.091343
H      -0.643870    1.895760   -0.414332
H      -3.090771   -0.446971    0.933800
H      -3.116408   -0.400713   -0.822434
H      -3.806962   -2.880994   -0.009638
H      -1.436813   -4.089553   -0.058904
H       1.385111   -2.860241   -0.025007
