13

C       0.052176   -1.205318   -0.112971
C       0.026037   -0.005695   -0.048517
C      -0.028097    1.449889    0.040941
C      -0.597715    1.956362    1.404057
O       0.263272    3.026790    1.745118
C       1.513637    2.638666    1.238095
O       1.270963    2.052628   -0.024564
H       0.079539   -2.265158   -0.178249
H      -0.610940    1.846910   -0.798113
H      -1.618063    2.335032    1.327066
H      -0.557940    1.154245    2.153276
H       2.141120    3.524123    1.108510
H       2.002754    1.913191    1.912911
