18

C      -0.194487    1.554272    0.794214
C      -0.126820    0.068306    0.494730
C       1.052684   -0.463758   -0.368388
O       1.970929   -0.168804    0.751192
C       0.799535   -0.825252    1.368069
C       0.861703   -1.903820    0.228286
C      -0.317358   -2.808703   -0.131989
C       2.098213   -2.686732    0.245559
N       3.020764   -3.382992    0.235100
H       0.796391    1.950659    1.021182
H      -0.603614    2.100352   -0.062255
H      -0.852971    1.744252    1.648284
H      -1.112345   -0.341061    0.265831
H       1.376221   -0.189868   -1.372956
H       0.819405   -0.984989    2.446465
H      -1.266000   -2.272128   -0.158413
H      -0.153625   -3.263573   -1.113091
H      -0.402733   -3.619772    0.596812
