19

C      -0.086016    0.812175    0.490478
O      -0.378736    0.274503   -0.789505
C       0.683005   -0.390830   -1.426554
C       0.745897   -1.904618   -1.129152
C       1.341913   -2.760696   -2.255746
C       1.876248   -3.976804   -1.491920
O       2.233734   -3.482559   -0.189341
C       1.607790   -2.304199    0.070893
O       1.767077   -1.722514    1.107086
H       0.181415    0.037067    1.215168
H       0.743034    1.533992    0.435982
H      -0.987032    1.336588    0.818348
H       0.509104   -0.273470   -2.502952
H       1.649771    0.079358   -1.191228
H      -0.279084   -2.230372   -0.908910
H       0.619290   -3.032440   -3.027605
H       2.167581   -2.224562   -2.737991
H       1.112833   -4.755004   -1.373439
H       2.768368   -4.425620   -1.933214
