18

O      -0.112507    1.391827   -0.093280
C       0.020853   -0.013291    0.156478
C      -1.337273   -0.661472    0.048829
O      -2.302990   -0.018496    0.846598
C      -1.912406   -1.222211   -1.244906
N      -0.816232   -1.899367   -1.980804
C      -0.690892   -2.908039   -0.864460
C      -1.675409   -2.121258   -0.013653
O      -2.476836   -2.728496    0.921796
H      -0.256386    1.496710   -1.040364
H       0.730311   -0.479455   -0.534129
H       0.405408   -0.094970    1.178043
H      -2.104523    0.925009    0.772922
H      -2.793672   -0.811004   -1.722817
H      -1.182381   -2.355066   -2.810542
H      -1.106381   -3.884757   -1.130314
H       0.328971   -3.040215   -0.487067
H      -2.811821   -2.025250    1.495111
