17

C       0.006846    1.499876    0.008829
C      -0.059825   -0.029972    0.002832
C      -1.494160   -0.527435    0.013471
O      -1.450718   -1.974917    0.006933
C      -2.591641   -2.623049    0.013966
N      -2.731488   -3.918485    0.009395
C      -4.095221   -4.028952    0.020745
N      -4.772770   -2.913151    0.031859
O      -3.740824   -1.936851    0.027132
H       1.045339    1.840692    0.001036
H      -0.489939    1.925860   -0.869414
H      -0.474166    1.918236    0.899429
H       0.445288   -0.430978   -0.882685
H       0.460949   -0.438550    0.875726
H      -2.033272   -0.193291    0.906585
H      -2.049057   -0.185745   -0.867029
H      -4.607741   -4.980765    0.020997
