20

C      -0.492015    1.319340    0.098734
C       0.279304    0.007915   -0.102157
C       0.853772   -0.562040    1.185047
C       2.094892    0.143868    1.706820
C      -0.039138   -1.096428    2.274299
O      -1.372073   -1.450839    1.914187
C      -1.242459   -2.479260    1.034167
N      -0.078194   -2.905618    0.750997
C       0.837703   -2.064367    1.484563
H       0.138471    2.101439    0.534200
H      -0.870073    1.696731   -0.856440
H      -1.347487    1.167948    0.763913
H      -0.373520   -0.726027   -0.582357
H       1.109967    0.167918   -0.801331
H       1.903116    1.207853    1.881738
H       2.439990   -0.287450    2.652065
H       2.915836    0.061940    0.985721
H       0.048028   -0.806401    3.314495
H      -2.177213   -2.861167    0.642281
H       1.738564   -2.541095    1.853779
