17

C       0.045469    1.456917   -0.095444
C      -0.018899   -0.024691    0.070875
O       0.527284   -0.905806   -1.018504
C       0.076177   -1.890740   -0.003168
C       0.660517   -0.975782    1.110426
C       2.176064   -0.907219    1.241356
O       2.696634   -2.034602    1.930782
C      -1.208747   -1.027269    0.040120
O      -2.390614   -1.079535   -0.045169
H       1.080219    1.808502   -0.144335
H      -0.470615    1.757630   -1.011414
H      -0.446396    1.944411    0.751882
H       0.241721   -2.945029   -0.215572
H       0.175865   -1.047886    2.089833
H       2.632739   -0.782600    0.252824
H       2.446558   -0.037998    1.850336
H       2.642586   -2.792668    1.340662
