19

C       0.269533    1.365074   -0.724366
C       0.031552    0.005599   -0.105842
C       1.148080   -0.936608    0.084982
O       0.614814   -0.194985    1.186224
C      -1.354969   -0.538575   -0.231222
C      -2.427355   -0.264276   -1.307116
C      -3.523168   -0.520427   -0.211968
C      -2.392517   -0.778521    0.791800
O      -1.607302   -1.856356    0.263484
H       1.291779    1.692085   -0.521938
H       0.118621    1.337478   -1.808294
H      -0.416439    2.108989   -0.305178
H       0.940359   -2.003426    0.106806
H       2.150716   -0.648571   -0.229743
H      -2.434217    0.766711   -1.666981
H      -2.407584   -0.948814   -2.158250
H      -4.106556    0.375351    0.013093
H      -4.196890   -1.364606   -0.375050
H      -2.362385   -0.631402    1.864680
