17

C      -0.057409    1.450026    0.167526
C      -0.046835   -0.025952   -0.062489
C       0.695684   -0.882398   -1.112110
C       0.117472   -1.836408   -0.052295
O       0.543289   -0.897100    1.018031
C       0.336541   -3.294980    0.157160
O       0.356686   -4.095195   -0.743743
C      -1.240128   -1.030252   -0.113404
O      -2.087149   -1.084321    0.974547
H       0.953541    1.819657    0.361588
H      -0.453090    1.963146   -0.714429
H      -0.693021    1.697817    1.023153
H       0.284930   -0.931798   -2.122500
H       1.781706   -0.795079   -1.091685
H       0.458873   -3.592455    1.221711
H      -1.823955   -1.102115   -1.032812
H      -1.509390   -1.006114    1.749315
