20

C       0.070395    1.539056   -0.157642
O       0.033433    0.140268    0.077492
C       0.525432   -0.641088   -0.975956
C       0.776782   -2.092401   -0.541735
N       0.662893   -2.913482   -1.760191
C      -0.379927   -2.294859   -2.601904
C      -1.742037   -2.986415   -2.452713
C      -0.465069   -0.827953   -2.147203
O      -1.205915    0.012172   -2.591225
H       1.099251    1.877810   -0.358414
H      -0.570110    1.825404   -0.997174
H      -0.286256    2.019439    0.756427
H       1.455677   -0.209425   -1.391603
H       1.747841   -2.241700   -0.067014
H       0.004498   -2.378226    0.182441
H       1.548510   -2.896122   -2.253187
H      -0.085088   -2.324024   -3.656790
H      -2.056120   -3.011542   -1.404751
H      -2.500614   -2.445200   -3.024672
H      -1.679979   -4.016028   -2.813142
