18

C      -0.557258    0.456002   -0.072340
O       0.134312    0.229143   -1.286627
C       1.313944   -0.536659   -1.129940
C       1.023230   -2.001191   -0.963844
N       0.919920   -2.635616    0.140329
C       0.536198   -3.984375   -0.198303
C      -0.792027   -4.137125   -0.915347
C       0.466807   -4.011446   -1.718627
O       0.825460   -2.700367   -2.120728
H      -0.861513   -0.479776    0.413831
H       0.060754    1.026612    0.637736
H      -1.445752    1.040536   -0.321732
H       1.900321   -0.388465   -2.040821
H       1.896998   -0.203222   -0.261212
H       0.916860   -4.778452    0.431984
H      -1.244293   -5.122521   -0.894615
H      -1.487554   -3.304628   -0.895003
H       0.828667   -4.777712   -2.391221
