17

C      -0.103651    1.535813   -0.036682
O      -0.204171    0.122842   -0.057640
C       0.592587   -0.518045   -1.028717
C       2.140966   -0.540139   -0.713574
C       2.058415   -2.073009   -0.680895
O       2.878661   -2.940479   -0.623345
C       0.531062   -2.066023   -0.813082
C       0.281212   -0.096804   -2.392585
C       0.030579    0.245898   -3.517478
H       0.925056    1.867732    0.166113
H      -0.435284    1.978810   -0.983897
H      -0.751945    1.880354    0.771373
H       2.818052   -0.111460   -1.454641
H       2.357177   -0.116333    0.272245
H       0.022018   -2.302843    0.125992
H       0.110367   -2.665829   -1.621594
H      -0.194200    0.544649   -4.511920
