18

O       0.002700   -0.041169   -0.003619
C      -0.013873    1.178466    0.003622
C       1.247880    1.972312    0.038524
C       2.421624    1.379640    0.808203
C       2.457769    1.387723   -0.679471
C      -1.296707    1.938105   -0.022856
C      -2.454108    1.322229   -0.798996
C      -2.490148    1.313114    0.688670
H       1.145076    3.051319    0.041991
H       3.051909    2.071226    1.355242
H       2.224532    0.432512    1.296777
H       2.284812    0.445939   -1.187171
H       3.113841    2.084786   -1.187881
H      -1.223228    3.019477   -0.014512
H      -3.103053    2.002394   -1.338487
H      -2.231524    0.386173   -1.297850
H      -2.291585    0.370903    1.186108
H      -3.164763    1.986540    1.204613
