20

C       0.067477    1.453727   -0.365024
C       0.045025    0.002544    0.136362
C       0.642309   -0.119310    1.547018
C      -1.372695   -0.552933    0.086860
O      -2.308525    0.092299    0.899849
C      -1.946908   -1.058028   -1.188269
C      -1.609247   -2.064479   -0.085068
C      -0.518082   -2.978401   -0.245213
N       0.375195   -3.705947   -0.363277
H       1.083183    1.858734   -0.330724
H      -0.290839    1.523178   -1.396775
H      -0.575445    2.086234    0.254429
H       0.654169   -0.611554   -0.537177
H       0.093448    0.495588    2.271488
H       0.638996   -1.156316    1.896219
H       1.677744    0.232648    1.555365
H      -2.016021    0.015261    1.815073
H      -3.001631   -0.886494   -1.366237
H      -1.316806   -1.060612   -2.069990
H      -2.455683   -2.456419    0.468036
