15

O       0.079330    1.345716    0.008533
C      -0.012536   -0.054016    0.002442
C      -1.486017   -0.455082    0.011584
O      -2.389268    0.352120    0.022242
C      -1.763394   -1.896642    0.006748
C      -2.942391   -2.589859    0.012339
C      -2.600066   -3.971655    0.002993
C      -1.237385   -4.020901   -0.007517
O      -0.711705   -2.776070   -0.005449
H       1.011854    1.579544    0.000500
H       0.456068   -0.511789   -0.885153
H       0.469273   -0.520280    0.878503
H      -3.924283   -2.145045    0.021944
H      -3.271003   -4.815975    0.003939
H      -0.526159   -4.831005   -0.016816
