17

O       0.101041    1.297876   -0.295027
C       0.030322   -0.082499   -0.040842
C       0.606640   -0.548270    1.283713
C      -0.141360   -1.499257    1.840110
C      -1.361999   -1.817411    1.001735
C      -1.454102   -0.601582    0.053648
O      -2.267815    0.440509    0.596786
C      -2.036715   -0.920109   -1.311692
O      -1.694114   -1.865818   -1.972784
H      -0.695398    1.678493    0.101890
H       0.544183   -0.587741   -0.868996
H       1.548290   -0.163766    1.657495
H       0.090216   -2.034696    2.754100
H      -1.219974   -2.733411    0.415818
H      -2.286706   -1.940347    1.577019
H      -2.107513    0.470398    1.547184
H      -2.804445   -0.196246   -1.658532
