18

C      -0.120947    1.474656   -0.080072
C       1.457292    1.751782    0.054890
C       2.099791    1.904652    1.524851
C       0.963994    1.344566    2.338405
C       1.395770    0.081735    1.550567
C       0.159891   -0.856016    1.256393
N       0.019645   -0.061467   -0.047118
C       1.486984    0.247229    0.054676
O       2.842393    0.637621    1.820452
H      -0.838202    1.940048    0.597273
H      -0.423696    1.700410   -1.104848
H       1.890943    2.357702   -0.739580
H       2.691054    2.785411    1.772704
H       1.253323    1.183357    3.378191
H      -0.046264    1.743242    2.285546
H       0.355285   -1.889713    0.963603
H      -0.655262   -0.807404    1.983772
H       2.206814   -0.395826   -0.451685
