20

C       0.007486    1.508750    0.065229
C       1.440783    2.029408   -0.022406
O       2.026643    1.731455   -1.290064
C       1.976440    0.387877   -1.681737
C       3.020487   -0.630785   -1.211118
N       2.777320   -0.933125    0.221693
C       1.937670   -1.578102   -0.814028
C       0.828675   -0.564109   -1.144323
C      -0.011074   -0.028769    0.027484
H      -0.457360    1.868926    0.990078
H      -0.566575    1.926962   -0.771441
H       1.467042    3.120742    0.051589
H       2.047584    1.609913    0.790628
H       1.966946    0.391897   -2.776668
H       3.990024   -0.826372   -1.654102
H       3.487613   -1.607571    0.503898
H       1.901675   -2.656229   -0.907639
H       0.196543   -0.891501   -1.972658
H       0.418056   -0.398639    0.963707
H      -1.039675   -0.399870   -0.031343
