20

C      -0.261874    1.490649    0.030097
C       0.051605   -0.019451    0.014490
N       0.777084   -0.366851   -1.200887
C       2.051561   -0.830768   -1.346781
O       2.549902   -1.005518   -2.444042
C       2.810040   -1.125844   -0.062805
C       2.019861   -0.963777    1.198913
C       0.784017   -0.469412    1.258169
C       0.030168   -0.344791    2.555854
H       0.662573    2.071290    0.100415
H      -0.780736    1.779370   -0.889822
H      -0.908682    1.753445    0.871416
H      -0.913371   -0.551732   -0.008609
H       0.324266   -0.160525   -2.080713
H       3.204843   -2.145372   -0.153773
H       3.699534   -0.480947   -0.059455
H       2.506258   -1.281413    2.119066
H       0.602916   -0.774391    3.381212
H      -0.186499    0.699815    2.808707
H      -0.935989   -0.863188    2.507347
