19

C      -0.011775    1.413920   -0.109541
C       1.429087    1.936146   -0.047102
C       2.208127    1.302537    1.121828
C       1.821663    1.794136    2.530978
C       0.609789    1.079074    3.067530
C       0.084419    0.032595    2.436946
C       0.683878   -0.466725    1.141601
O      -0.048320   -0.005709    0.015580
O       2.047090   -0.119607    1.043862
H      -0.629025    1.883177    0.669002
H      -0.466131    1.637935   -1.078418
H       1.945419    1.656694   -0.971515
H       1.435633    3.029597    0.022786
H       3.276202    1.478897    0.966555
H       2.664767    1.637272    3.218159
H       1.649499    2.877924    2.515086
H       0.188740    1.437080    4.003973
H      -0.802250   -0.476379    2.801165
H       0.646244   -1.557167    1.076959
