16

O       0.102518    0.251198    0.516974
C       0.108121    1.398934    0.144514
N       1.153913    1.998334   -0.543942
C       2.539153    1.828246   -0.172095
C       3.393426    2.300257   -1.353582
C       2.694001    3.701936   -1.275275
C       1.867989    3.196865   -0.074192
C       1.434304    3.939778    1.056681
C       1.071842    4.600292    1.994961
H      -0.759199    2.077020    0.238181
H       2.793012    1.140328    0.624729
H       4.455254    2.355553   -1.108055
H       3.259699    1.731675   -2.275827
H       3.383207    4.498905   -0.992916
H       2.101984    4.012311   -2.137910
H       0.755137    5.173955    2.830950
