23

C       0.079614    1.570278    0.151100
C       0.079588    0.049324    0.146074
O       0.697342   -0.378803   -1.053088
C       0.639854   -1.770431   -1.355416
C       1.291164   -2.624091   -0.259218
C      -0.811144   -2.274343   -1.655042
C      -0.650484   -3.103497   -2.904090
C       0.543970   -2.933021   -3.468043
C       1.398050   -1.960180   -2.699232
H       1.102520    1.951876    0.083236
H      -0.485146    1.957536   -0.701731
H      -0.372790    1.950591    1.072089
H       0.620974   -0.329328    1.026265
H      -0.952303   -0.329978    0.212583
H       0.720970   -2.602396    0.674320
H       1.343652   -3.666316   -0.589312
H       2.307897   -2.273455   -0.055797
H      -1.242821   -2.839098   -0.820078
H      -1.474889   -1.418187   -1.836387
H      -1.444365   -3.732709   -3.291962
H       0.876037   -3.403383   -4.387106
H       1.468972   -0.992401   -3.211082
H       2.424849   -2.311613   -2.543877
