21

C       0.016851    1.582688    0.155930
C       0.063638    0.076784    0.032175
C      -0.851007   -0.753074    0.896534
C       0.647648   -0.812903    1.150128
C       1.306772   -1.979555    0.476171
C       1.288036   -1.796968   -0.845562
C       0.988828   -2.513754   -2.144428
C      -0.154849   -1.444759   -2.313045
C       0.588281   -0.529442   -1.263947
H       0.973289    2.034171   -0.132607
H      -0.758775    2.009224   -0.491743
H      -0.202903    1.896437    1.181348
H      -1.456984   -0.203797    1.610935
H      -1.331452   -1.638375    0.491977
H       1.034435   -0.388189    2.071506
H       1.565386   -2.891376    1.003573
H       1.764632   -2.383290   -2.906475
H       0.709306   -3.568594   -2.097719
H      -0.295246   -1.028750   -3.313409
H      -1.108477   -1.815418   -1.931239
H       1.231836    0.183202   -1.796402
