16

C      -0.010876    1.474767    0.062609
C       1.229051    1.984917    0.003527
C       2.267790    0.864249   -0.041516
C       2.547338    0.668457    1.448590
C       1.723552   -0.257252    1.963953
C       0.912133   -0.888874    0.910460
C       0.012703    0.009314   -0.075542
C       1.421138   -0.386459   -0.408515
H      -0.916043    2.042160    0.244575
H       1.497766    3.023464    0.158141
H       3.142527    1.053365   -0.667215
H       3.190529    1.333058    2.013659
H       1.613827   -0.484185    3.017915
H       0.542000   -1.901225    1.024904
H      -0.836499   -0.524623   -0.486294
H       1.682481   -1.034312   -1.237072
