13

C      -0.026754    1.525552    0.004130
C      -0.007138    0.031417   -0.013349
C      -0.045856   -0.733585   -1.135819
N      -0.028271   -2.113005   -1.165863
N       0.028549   -2.758021   -0.068841
N       0.069169   -2.058537    1.076349
C       0.058250   -0.667684    1.261200
O       0.100317   -0.179230    2.373703
H       0.866266    1.912054    0.506836
H      -0.076498    1.937425   -1.005985
H      -0.882748    1.888183    0.583227
H      -0.095149   -0.279888   -2.121028
H       0.113511   -2.634039    1.908889
