21

C       0.046604    1.522347    0.022876
C      -0.049257   -0.016842   -0.040975
C      -1.527106   -0.461352   -0.005049
O      -2.228614    0.041219    1.108890
C       0.734445   -0.595731   -1.237316
C       2.190636   -0.742182   -0.738163
C       2.040701   -1.170779    0.730300
C       0.694858   -0.599263    1.172098
O       0.258192   -0.625250    2.302106
H       1.083569    1.869789    0.067840
H      -0.416445    1.955811   -0.870039
H      -0.485071    1.895861    0.899759
H      -2.039509   -0.088275   -0.900332
H      -1.566447   -1.563818   -0.044778
H      -1.698604   -0.190563    1.886122
H       0.334274   -1.584753   -1.496381
H       0.655829    0.029460   -2.130856
H       2.766101   -1.454847   -1.333351
H       2.709334    0.220091   -0.800185
H       1.970311   -2.262562    0.825004
H       2.843653   -0.850722    1.399115
