17

O      -0.611184    1.246106   -0.261887
C      -0.193145   -0.053289   -0.190047
C       1.063192   -0.477633   -0.541588
N       1.098349   -1.846815   -0.317351
C      -0.105887   -2.276287    0.159173
C      -0.943957   -1.181570    0.257541
N      -0.309581   -3.647383    0.380780
C       0.087769   -4.216054    1.682161
C      -1.344890   -4.039485    1.325617
H      -1.531817    1.281693    0.010990
H       1.915581    0.063538   -0.912920
H       1.861701   -2.458398   -0.545115
H      -1.971046   -1.187871    0.588802
H       0.551781   -5.196309    1.634570
H       0.503873   -3.533432    2.418654
H      -1.884169   -3.250069    1.842999
H      -1.948738   -4.890569    1.025720
