15

O      -0.032727    0.017120    0.414862
C      -0.046646    1.173538    0.077547
C      -1.316667    1.979363   -0.163322
O      -1.245279    3.154620    0.640960
C      -0.263719    4.052407    0.161961
C       1.092206    3.384336    0.008867
C       1.722252    2.576902    1.095938
N       1.135905    1.926116   -0.079846
H      -1.441495    2.233195   -1.228213
H      -2.176705    1.401245    0.174835
H      -0.569085    4.459655   -0.816557
H      -0.222118    4.881383    0.874962
H       1.757980    3.880578   -0.695380
H       2.803723    2.520943    1.177405
H       1.178642    2.473999    2.031333
