18

C      -0.096484    1.348702    0.101994
O       0.032455   -0.056197    0.054049
C       0.608286   -0.525920   -1.139240
C       0.554272   -2.050158   -1.118445
N      -0.811452   -2.575057   -1.135317
C      -1.368821   -2.937197   -2.367591
O      -2.481151   -3.337922   -2.564676
C      -1.509256   -2.646959    0.086109
O      -2.652934   -2.976128    0.225238
H       0.882815    1.846892    0.038623
H      -0.731362    1.723928   -0.714428
H      -0.561542    1.598413    1.057741
H       0.061512   -0.142651   -2.017341
H       1.657347   -0.196776   -1.231669
H       1.093118   -2.445782   -1.983625
H       1.064245   -2.415783   -0.222399
H      -0.620283   -2.813137   -3.177856
H      -0.848234   -2.360255    0.922882
