18

C      -0.031039    1.412025   -0.140355
C      -0.102296   -0.070954    0.117079
C      -0.781148   -0.602202    1.340158
C       0.744075   -0.714653    1.192349
C       1.315893   -2.027545    0.855379
C       0.993279   -2.644330   -0.286574
C       0.123865   -2.034395   -1.301893
N      -0.267501   -2.578352   -2.384970
O      -0.269820   -0.743229   -1.112169
H       0.826127    1.650928   -0.776816
H      -0.938984    1.751042   -0.648283
H       0.066554    1.961764    0.799429
H      -1.169341    0.109794    2.060389
H      -1.340314   -1.526973    1.252827
H       1.346839   -0.065945    1.819690
H       2.001075   -2.490502    1.559880
H       1.385750   -3.625536   -0.529718
H       0.109474   -3.522623   -2.448295
