22

C      -0.104899    1.565187    0.018535
C      -0.029683    0.028938    0.012264
C      -1.458000   -0.557838    0.050668
C       0.710069   -0.423396   -1.265577
N       1.022281   -1.865326   -1.287000
C       2.437330   -2.220674   -1.154695
C       1.495288   -2.430462   -0.017937
C       1.485428   -1.567891    1.188794
C       0.757976   -0.452158    1.217482
H       0.893781    2.013827    0.044682
H      -0.619366    1.935890   -0.874936
H      -0.657266    1.923721    0.894050
H      -2.060054   -0.160643   -0.774612
H      -1.435917   -1.646939   -0.037219
H      -1.961466   -0.302098    0.988952
H       0.094078   -0.205557   -2.146989
H       1.625635    0.177620   -1.357424
H       2.773530   -3.064502   -1.752249
H       3.154630   -1.406693   -1.063998
H       1.151847   -3.451369    0.155716
H       2.033559   -1.910383    2.062927
H       0.704367    0.150527    2.121513
