11

O      -0.052235    1.231457    0.008915
N       1.165708    1.839587    0.000751
C       2.020692    0.837614   -0.012425
C       3.443514    0.761103   -0.026066
N       4.013627   -0.410438   -0.037467
C       3.207424   -1.537314   -0.035832
N       1.904002   -1.612674   -0.024094
C       1.302662   -0.394571   -0.012157
N       0.007024   -0.129370    0.001276
H       4.068345    1.651129   -0.027245
H       3.756077   -2.474738   -0.045811
