15

N      -0.143655    1.255681    0.145472
C      -0.048275   -0.004317    0.003948
N      -1.077494   -0.872871   -0.272927
C      -0.742816   -2.286075   -0.050324
C       0.806873   -2.298369   -0.157735
C       1.211740   -0.850030    0.082560
O       2.311774   -0.415165    0.294950
C      -1.225492   -2.785812    1.240408
C      -1.637988   -3.185398    2.295985
H       0.795452    1.629261    0.301564
H      -2.028274   -0.562300   -0.139784
H      -1.187320   -2.892532   -0.847058
H       1.283990   -2.978041    0.547982
H       1.119803   -2.579873   -1.168813
H      -1.999726   -3.537086    3.230999
