17

O      -0.038495    1.488634   -0.192756
C       0.102851    0.121494    0.161355
C      -1.246679   -0.569180    0.088914
O      -1.811560   -0.540173   -1.263101
C      -2.113739   -1.942606   -1.212167
C      -1.056078   -2.903506   -1.834611
O       0.232732   -2.347391   -1.591105
C      -0.395590   -3.042917   -0.515902
C      -1.431217   -2.106814    0.163911
H      -0.388608    1.497535   -1.091183
H       0.830121   -0.388681   -0.477390
H       0.465462    0.099331    1.195849
H      -1.940056   -0.053972    0.767152
H      -3.161482   -2.182276   -1.408560
H      -1.150828   -3.585930   -2.671882
H       0.148980   -3.871476   -0.077883
H      -1.949085   -2.527811    1.023509
