18

C      -0.025907    1.559807   -0.022957
C      -0.001988    0.049415    0.036350
C      -1.332992   -0.655732    0.411987
N      -1.131414   -2.118280    0.279319
C      -0.670390   -1.418873    1.502871
C       0.702920   -0.786547    1.174649
C       1.594557   -1.517514    0.130706
C       0.878471   -0.722003   -0.983871
O       1.016203   -0.644149   -2.168888
H       0.986862    1.974593   -0.047723
H      -0.545823    1.897996   -0.926045
H      -0.543899    1.981656    0.845569
H      -2.324035   -0.222391    0.343579
H      -2.018694   -2.568415    0.499315
H      -1.040624   -1.712782    2.477463
H       1.196454   -0.276108    2.000108
H       2.655622   -1.256133    0.198691
H       1.490934   -2.601152    0.056873
