16

O      -0.295535    1.424987   -0.500022
C      -0.007284    0.087391   -0.124712
C      -1.341375   -0.625921    0.036507
C      -1.206973   -2.074662    0.449070
O      -0.136608   -2.613908    0.622112
C      -2.505991   -2.863954    0.624622
C      -2.481305   -4.139191   -0.207994
O      -3.407480   -4.523930   -0.869875
H       0.538438    1.889301   -0.615872
H       0.596928   -0.430151   -0.883241
H       0.553031    0.038623    0.819957
H      -1.963603   -0.103973    0.776435
H      -1.913943   -0.579876   -0.900281
H      -2.544779   -3.173832    1.678010
H      -3.404010   -2.288477    0.392634
H      -1.520601   -4.691134   -0.151977
