23

C       0.176949    1.553439    0.236192
C       0.104620    0.063391    0.015550
C      -1.010326   -0.768539    0.599822
C       0.408062   -0.969608    1.076182
C       1.206639   -2.082130    0.400289
C       2.709444   -1.902331    0.664026
C       0.755647   -3.496998    0.756519
O       0.923846   -1.898827   -1.003333
C       0.701023   -0.518119   -1.259133
H       1.207729    1.919453    0.159326
H      -0.422906    2.096598   -0.503904
H      -0.200881    1.825505    1.226575
H      -1.695204   -0.272413    1.279505
H      -1.462679   -1.538328   -0.017771
H       0.679407   -0.679875    2.085564
H       2.940585   -2.045604    1.724901
H       3.283844   -2.631344    0.085086
H       3.041914   -0.899203    0.380767
H      -0.316718   -3.617270    0.585565
H       1.286338   -4.229790    0.141310
H       0.966513   -3.714860    1.808103
H       0.040333   -0.450147   -2.131399
H       1.639925    0.005887   -1.505344
