16

O       0.672801   -0.281980   -0.134703
C       0.329388    0.861059    0.011424
C       1.295230    2.030035    0.061662
C       1.046478    3.046059   -1.094225
O       1.011807    4.346142   -0.518264
C       1.629571    4.293378    0.746989
C       1.194248    2.929032    1.331963
C      -0.158052    3.006828    1.889225
N      -1.220888    3.076523    2.337940
H      -0.742162    1.143627    0.094834
H       2.305719    1.620945    0.007423
H       1.847863    2.966271   -1.839174
H       0.088788    2.882075   -1.600569
H       2.728430    4.316856    0.673160
H       1.291161    5.149898    1.333059
H       1.870351    2.576785    2.115268
