15

O      -0.392311    0.228090    0.106777
C       0.026260    1.319367    0.380362
C       1.367352    1.858732   -0.068012
O       2.183197    0.927156   -0.789599
C       2.124758    1.691609   -1.998175
C       3.253199    1.799749   -2.980687
C       1.980539    1.087409   -3.366293
C       1.310238    2.759824   -1.345745
O       0.834827    3.810320   -1.644407
H      -0.558210    2.053024    0.979211
H       1.889092    2.329551    0.776228
H       3.458023    2.778801   -3.400243
H       4.125092    1.193099   -2.762070
H       1.996136    0.003841   -3.399801
H       1.294125    1.568219   -4.054672
