19

C      -0.084423    1.472893    0.077409
C      -0.068327   -0.013618   -0.015691
C      -0.064718   -0.827413   -1.073761
C       0.081558   -2.233170   -0.519955
O      -0.592678   -2.134170    0.752125
C       0.095158   -0.949878    1.187542
C       1.580945   -1.425071    1.171073
C       1.545006   -2.443278   -0.014059
O       1.743468   -3.779539    0.406565
H       0.820726    1.847709    0.573701
H      -0.144430    1.938282   -0.909940
H      -0.934275    1.825183    0.675381
H      -0.068454   -0.564435   -2.123092
H      -0.309288   -3.065003   -1.104800
H      -0.295941   -0.609273    2.146418
H       2.287721   -0.604630    1.028997
H       1.847423   -1.956482    2.087585
H       2.297352   -2.248534   -0.780230
H       1.018110   -3.976870    1.012570
