22

C      -0.114178    1.238011   -0.265436
C      -0.085360   -0.227845    0.090514
N       1.222268   -0.913298   -0.034727
C       0.622651   -0.751289    1.285476
C       1.238375    0.030163    2.451102
C       0.403914   -0.860496    3.418977
C       0.124986   -1.847183    2.244409
C      -1.278419   -2.400945    2.070304
O      -1.431707   -3.109811    0.842471
H       0.800498    1.736877    0.065558
H      -0.193754    1.371643   -1.349711
H      -0.971550    1.738798    0.198598
H      -0.953970   -0.801013   -0.226653
H       1.073920   -1.866809   -0.359637
H       2.314445   -0.147483    2.536391
H       1.058143    1.107188    2.487719
H       0.917399   -1.265656    4.292771
H      -0.511296   -0.361666    3.751766
H       0.843584   -2.679660    2.269347
H      -1.552623   -3.031982    2.930691
H      -2.001881   -1.579771    2.026343
H      -0.881979   -3.898726    0.888485
