17

N       0.088921    1.159048   -0.016592
C       0.168371   -0.192257    0.126482
O       1.205153   -0.790680    0.350771
C      -1.149689   -0.938829   -0.037428
C      -1.201022   -1.889411   -1.225775
C      -1.089880   -2.429985    0.167622
N      -2.379288   -0.300903    0.362809
C      -2.983478    0.732737   -0.271720
O      -2.541914    1.319634   -1.243464
H       0.974340    1.640634   -0.056679
H      -0.689074    1.546140   -0.539978
H      -2.151505   -1.967134   -1.739599
H      -0.323275   -1.922838   -1.859966
H      -0.129974   -2.810187    0.493071
H      -1.964880   -2.903160    0.599885
H      -2.804950   -0.623243    1.219114
H      -3.945782    1.003323    0.203127
