15

C      -0.048121    1.401216    0.005761
N       0.159323   -0.029031   -0.104831
C       0.585224   -0.625410    0.912098
O       0.775968   -1.981214    0.840042
C       1.293376   -2.618902    1.914078
C       1.352173   -3.983933    2.078106
N       1.966813   -4.109634    3.280771
N       2.264306   -2.924562    3.823950
N       1.854680   -2.007127    2.984411
H       0.557760    1.914417   -0.749050
H      -1.095775    1.633779   -0.214984
H       0.200754    1.816965    0.994532
H       0.831479   -0.191443    1.884342
H       1.028109   -4.812990    1.475362
H       2.210857   -4.951837    3.777219
