15

C      -0.047481    1.541864   -0.103590
C      -0.020344    0.047620    0.087409
O       1.217029   -0.634234   -0.120867
C       0.653074   -0.658736    1.207545
C       1.447504    0.055767    2.281751
C       0.112471   -1.938457    1.615093
C      -0.330433   -2.992345    1.986972
H       0.808260    2.035553    0.359548
H      -0.033524    1.776456   -1.173261
H      -0.967251    1.960965    0.318014
H      -0.876282   -0.474551   -0.344548
H       1.860505    0.993980    1.909508
H       0.815261    0.261340    3.150845
H       2.276630   -0.577624    2.610152
H      -0.723665   -3.926779    2.303479
