15

C      -0.025150    1.564455    0.018505
C       0.001174    0.034218    0.019046
N       0.766949   -0.552241   -1.072003
C       1.866762   -1.256087   -0.655628
O       2.727959   -1.778621   -1.320649
N       1.789348   -1.260539    0.748858
C       0.724753   -0.531389    1.245268
N       0.345469   -0.305640    2.434813
H       0.990989    1.969767    0.015459
H      -0.554669    1.942989   -0.861458
H      -0.539601    1.914926    0.916154
H      -1.027931   -0.345627    0.020083
H       0.686746   -0.269550   -2.033312
H       2.476847   -1.744046    1.302625
H       0.950375   -0.755738    3.122762
