24

C      -1.002625    0.647264   -1.255689
C      -0.367735   -0.685059   -0.848900
C       1.141309   -0.781042   -1.139839
C       1.999395    0.311584   -0.446251
C       1.876034    0.372938    1.080365
C       1.656803   -2.164968   -0.735808
O       1.316624   -2.716169    0.299674
N       2.551858   -2.722516   -1.605123
C       3.187734   -4.002125   -1.361975
H      -0.607352    1.486518   -0.674977
H      -0.829420    0.867809   -2.315713
H      -2.085233    0.622251   -1.097385
H      -0.533380   -0.884408    0.213452
H      -0.870031   -1.500536   -1.383425
H       1.287630   -0.658300   -2.222770
H       3.048734    0.140709   -0.718373
H       1.733840    1.283428   -0.877660
H       0.872832    0.679648    1.392121
H       2.077232   -0.600512    1.533729
H       2.583551    1.101109    1.489280
H       2.781025   -2.219928   -2.445949
H       4.276738   -3.902546   -1.286940
H       2.798350   -4.379494   -0.415680
H       2.956818   -4.720998   -2.156191
