16

C      -0.081433   -1.216846    0.002797
C      -0.046512   -0.012133    0.005590
C       0.018711    1.394340    0.008756
C      -0.737208    2.467058    0.787334
C       0.565504    3.128554    1.229662
C       1.215349    2.451616   -0.006206
C       0.528522    3.135784   -1.217857
C      -0.760286    2.471557   -0.740301
H      -0.116854   -2.277540    0.000508
H      -1.644336    2.319171    1.358608
H       0.609186    4.222640    1.281184
H       0.928238    2.698926    2.166871
H       2.274177    2.205559   -0.022931
H       0.570716    4.230160   -1.264209
H       0.862741    2.711738   -2.168120
H      -1.684266    2.326952   -1.284779
