22

C       0.078946    1.548488    0.183878
C      -0.014210    0.036513   -0.043104
C      -1.454177   -0.516754   -0.073525
C      -2.203260   -0.077396   -1.341256
C      -1.428028   -2.052503    0.091163
O      -0.751280   -2.450100    1.271953
C      -2.842661   -2.680481    0.049462
C      -2.819931   -4.125486    0.263092
N      -2.816504   -5.270248    0.417887
H       1.124522    1.867752    0.230573
H      -0.400172    2.121997   -0.615845
H      -0.396447    1.836402    1.128553
H       0.482978   -0.226916   -0.986846
H       0.535227   -0.482460    0.747305
H      -1.991194   -0.113067    0.801474
H      -3.271264   -0.308992   -1.300669
H      -2.118519    1.002159   -1.488985
H      -1.784569   -0.564095   -2.230300
H      -0.838068   -2.487535   -0.724776
H      -1.207474   -2.063639    2.028656
H      -3.473967   -2.220122    0.821198
H      -3.324903   -2.482997   -0.912369
