23

C      -0.145472    1.547437    0.042641
C      -0.084176    0.020460   -0.047742
C       0.789872   -0.474814   -1.206269
C       0.862165   -2.002486   -1.264083
N       1.524287   -2.512679   -2.466672
C       2.946364   -2.190523   -2.522071
C       1.296242   -3.944416   -2.607040
C       1.702945   -4.445076   -3.926395
N       2.026613   -4.854470   -4.956844
H       0.851244    1.975540    0.196315
H      -0.553052    1.982008   -0.876668
H      -0.778725    1.872072    0.873940
H       0.298508   -0.387131    0.897407
H      -1.099802   -0.380828   -0.161997
H       0.393655   -0.107708   -2.160911
H       1.794234   -0.048446   -1.098081
H       1.346920   -2.385332   -0.342970
H      -0.161446   -2.396978   -1.263634
H       3.510650   -2.601494   -1.663206
H       3.378874   -2.594049   -3.441157
H       3.085165   -1.108274   -2.537383
H       1.820847   -4.550220   -1.841145
H       0.226265   -4.147606   -2.488505
