13

O      -0.811023    0.836456    0.531507
C       0.251165    0.818737   -0.029972
C       1.280529    1.945757    0.082171
C       1.353458    2.553505    1.495718
N       2.487317    1.810940    2.011002
C       3.280880    1.309265    1.005793
O       4.376975    0.835953    1.079588
O       2.582977    1.420821   -0.179962
H       0.570142   -0.014257   -0.691432
H       1.046262    2.691846   -0.685333
H       1.533036    3.635529    1.468009
H       0.428363    2.355805    2.042831
H       2.927692    2.031100    2.888825
