16

O       0.003001    1.399651    0.312812
C      -0.013978    0.033083    0.139150
C       0.573181   -0.687154   -1.094140
N      -0.441922   -1.778257   -0.906437
C      -0.577043   -1.939665    0.584742
C      -1.297588   -0.851404   -0.121954
C       0.333371   -0.939150    1.305723
C       1.782770   -1.187782    1.626810
O       2.645745   -0.374590    1.390720
H       0.897891    1.641707    0.583581
H       0.340850   -0.160164   -2.022272
H       1.620973   -1.002669   -1.085131
H      -0.946054   -2.893731    0.936774
H      -2.342562   -0.648747   -0.312171
H      -0.167546   -0.609589    2.226158
H       2.028108   -2.153252    2.124252
