18

C      -0.101083    1.538877   -0.085774
C       0.037536    0.052313    0.037252
O       0.400418   -0.601671   -1.183964
C       1.155759   -1.664969   -0.805410
N       1.405761   -1.841994    0.427933
C       0.721519   -0.771821    1.135897
C       1.377910   -0.253238    2.386283
C      -0.787632   -0.808580    0.971808
O      -1.517600   -0.166226    1.973818
H       0.850888    2.003651   -0.359195
H      -0.838430    1.800044   -0.852957
H      -0.431678    1.959199    0.866408
H       1.505489   -2.285662   -1.621444
H       2.348546    0.198588    2.159826
H       0.744710    0.486789    2.878610
H       1.545350   -1.079304    3.084068
H      -1.222443   -1.728771    0.578518
H      -2.291155    0.241333    1.568933
