16

C      -0.191260    1.488552    0.117708
C       0.144878    0.040777   -0.018322
O      -0.694203   -0.911393    0.676009
C       0.722026   -0.941337    0.927158
C       1.270641   -1.814612   -0.211376
O       0.612202   -3.048958   -0.378426
C       0.775940   -0.700191   -1.216881
O      -0.041271   -1.134558   -2.259048
H       0.655745    2.109555   -0.190604
H      -1.044495    1.742765   -0.519942
H      -0.450244    1.731515    1.151607
H       1.049010   -0.838225    1.955790
H       2.346422   -1.994044   -0.216893
H      -0.279278   -2.907114   -0.025824
H       1.618910   -0.117969   -1.611822
H      -0.174399   -2.081413   -2.105114
