13

O       0.109444    1.416318    0.422125
C       0.045800    0.017147    0.159451
C      -1.329123   -0.504326   -0.026752
C      -2.049823   -0.950923   -1.092752
O      -1.643767   -1.061081   -2.371224
N      -3.324620   -1.304875   -0.704273
C      -3.333284   -1.060102    0.570630
O      -2.184950   -0.579751    1.061227
H      -0.336147    1.865222   -0.304268
H       0.626308   -0.257863   -0.732969
H       0.522188   -0.457202    1.023602
H      -2.383153   -1.430979   -2.868692
H      -4.147533   -1.198386    1.264623
