21

C      -0.448571    1.157329    0.265169
O       0.542338    0.196760   -0.066263
C       0.971467   -0.527099    1.041343
C       0.111308   -1.626044    1.626170
O      -1.011321   -2.039101    0.894538
C      -0.601267   -2.461607   -0.411298
C       0.920218   -2.743631   -0.359844
C       1.646410   -2.397438   -1.662665
C       1.374932   -1.974886    0.877370
H      -0.068874    1.886973    0.995829
H      -0.704568    1.683164   -0.657594
H      -1.344145    0.674732    0.674644
H       1.563189    0.052991    1.754388
H      -0.029333   -1.734351    2.696136
H      -1.189166   -3.347465   -0.674104
H      -0.812158   -1.671381   -1.139739
H       1.075873   -3.807328   -0.139306
H       1.541254   -1.333410   -1.887720
H       2.713839   -2.629229   -1.590603
H       1.240824   -2.972881   -2.502414
H       2.273247   -2.312063    1.382542
