17

O      -0.217075    0.589415    1.349560
C      -0.101949    1.420421    0.491609
O      -1.150128    1.756408   -0.291378
C      -0.899589    2.685958   -1.366346
C      -0.280315    3.967369   -0.823510
C       1.055613    3.651672   -0.108535
C       1.185511    2.165528    0.179692
C       2.438639    1.557480    0.623252
O       2.011471    1.412497   -0.737788
H      -0.250785    2.209322   -2.110195
H      -1.876198    2.862098   -1.820123
H      -0.132336    4.679070   -1.641057
H      -0.991208    4.421656   -0.126061
H       1.913613    3.932366   -0.726166
H       1.129929    4.215300    0.827134
H       3.309199    2.195661    0.766938
H       2.398204    0.653612    1.224957
