18

O       0.139814    1.435585   -0.072534
C       0.056669    0.033577   -0.017618
C       0.229473   -0.624163   -1.420008
N      -1.044446   -1.404811   -1.279311
C      -0.894147   -2.687053   -0.518913
C      -1.090059   -1.969237    0.865504
C       0.197044   -1.685154    1.597248
C       0.830329   -0.618563    1.103213
C      -1.329776   -0.688628    0.020163
H       0.016960    1.777212    0.820131
H       0.133997    0.113201   -2.222773
H       1.131462   -1.222513   -1.579978
H      -1.707287   -3.374315   -0.772607
H       0.061674   -3.201327   -0.662221
H      -1.895879   -2.363766    1.488181
H       0.583944   -2.336098    2.374085
H       1.808127   -0.257341    1.404317
H      -2.245096   -0.099637    0.111217
