14

C      -0.091372    1.577889   -0.157685
C      -0.120063    0.068651   -0.100147
C      -1.418168   -0.560862    0.367254
O      -1.707815   -0.202539    1.707810
C       0.824856   -0.737186   -0.884114
O       1.031899   -0.545041    0.518117
H       0.920568    1.937755   -0.357071
H      -0.757749    1.946840   -0.944972
H      -0.433877    1.992184    0.794666
H      -2.258521   -0.200029   -0.235766
H      -1.356916   -1.652565    0.247572
H      -0.957704   -0.498774    2.236653
H       0.562165   -1.751257   -1.183855
H       1.542532   -0.236640   -1.532984
