13

O       0.178053    0.433373   -1.194823
C       0.095489    1.343132   -0.399575
N       1.102567    1.751166    0.423733
C       2.421882    1.138954    0.376014
C       3.491816    2.095455    0.125154
C       4.391230    2.880423   -0.057751
C       5.439438    3.840662   -0.295221
O       6.620235    3.601639   -0.194391
H      -0.823284    1.941611   -0.251218
H       0.954260    2.543661    1.027713
H       2.633793    0.592915    1.305051
H       2.378831    0.395764   -0.428486
H       5.073178    4.846098   -0.586226
