21

O       0.103043    1.424101    0.276276
C       0.029241    0.022223    0.049733
C      -1.403942   -0.499380   -0.006452
C      -2.205758   -0.449495    1.331433
C      -2.637462   -1.924795    1.104813
C      -1.625414   -2.053811   -0.072729
C      -2.211461   -2.383262   -1.459634
C      -2.604110   -1.020836   -1.987429
C      -2.176781   -0.022899   -1.212762
H      -0.226540    1.865813   -0.512293
H       0.567510   -0.264213   -0.868203
H       0.554105   -0.438043    0.894583
H      -1.549759   -0.318737    2.196841
H      -3.006056    0.291671    1.394335
H      -2.483792   -2.605308    1.945535
H      -3.674590   -2.022687    0.772229
H      -0.747940   -2.654171    0.179185
H      -1.485320   -2.872225   -2.123755
H      -3.068292   -3.066524   -1.389812
H      -3.169225   -0.893813   -2.905361
H      -2.364181    1.029667   -1.406244
