22

C      -0.019438    1.559260    0.015471
C       0.007399    0.029283   -0.026417
C       0.730096   -0.492738   -1.273163
N       0.701709   -1.948982   -1.326740
C       1.190526   -2.467721   -2.592718
C       1.397117   -2.558752   -0.198505
C       0.863840   -2.060695    1.142321
O       0.666516   -2.812906    2.066698
C       0.662789   -0.558886    1.236572
H       0.995972    1.971914    0.041895
H      -0.525725    1.971722   -0.863538
H      -0.546692    1.918673    0.904786
H      -1.024112   -0.341958   -0.077340
H       0.234221   -0.110416   -2.172291
H       1.769669   -0.099033   -1.290441
H       2.255170   -2.226516   -2.779201
H       1.085309   -3.556981   -2.611680
H       0.599811   -2.053734   -3.415729
H       1.278021   -3.644665   -0.228852
H       2.489722   -2.343942   -0.218191
H       1.663066   -0.112481    1.352844
H       0.097842   -0.334084    2.144946
