13

N       0.026497    1.380139    0.178943
C       0.004715    0.010135   -0.039111
N      -1.152167   -0.554335   -0.164434
O      -1.159547   -1.919865   -0.506575
C      -0.018971   -2.681146   -0.629774
N      -0.084065   -3.923511   -0.898120
C       1.249857   -1.996308   -0.449336
C       1.271658   -0.687808   -0.170730
H       0.738371    1.696458    0.822603
H      -0.886194    1.759141    0.396592
H      -1.057642   -4.219428   -0.988467
H       2.141706   -2.599534   -0.562302
H       2.195763   -0.133059   -0.050580
