19

O       0.114158    1.330491   -0.382644
C       0.066864   -0.040274   -0.004532
C       0.674577   -0.852817   -1.173310
O      -0.103336   -2.030099   -1.283136
C      -1.446794   -1.625053   -1.047556
C      -1.375760   -0.653198    0.139188
C      -1.424468   -1.315965    1.541194
C      -0.098020   -0.965901    2.167023
C       0.701099   -0.298977    1.337539
H      -0.117605    1.852496    0.392949
H       0.610102   -0.238293   -2.085166
H       1.714778   -1.145239   -1.011703
H      -1.856257   -1.118757   -1.936966
H      -2.039547   -2.524049   -0.857982
H      -2.122141    0.139118    0.048901
H      -2.269896   -0.963837    2.145321
H      -1.540296   -2.404822    1.464899
H       0.161111   -1.263462    3.177970
H       1.710040    0.036540    1.554150
