20

C      -0.762759    1.274287   -0.069506
C       0.186998    0.081118    0.006631
C       1.210593    0.006026   -1.152117
C       2.393949   -0.701568   -0.535615
N       3.396333   -1.154720   -1.340637
C       2.311954   -0.698086    0.827603
C       1.063038    0.025341    1.283585
C       3.267826   -1.271258    1.739036
O       3.190695   -1.230805    2.954765
H      -0.207747    2.219308   -0.047763
H      -1.358746    1.257191   -0.988569
H      -1.457178    1.277530    0.776861
H      -0.405107   -0.842142   -0.024877
H       0.825130   -0.509002   -2.041045
H       1.518948    1.009818   -1.480099
H       3.176311   -1.350705   -2.303240
H       4.121670   -1.730530   -0.944569
H       1.300144    1.037974    1.641367
H       0.566692   -0.484280    2.114595
H       4.130586   -1.798053    1.259131
