16

O       0.074454    1.363910   -0.100925
C       0.064481   -0.000203   -0.042447
C       0.023867   -0.811966   -1.157073
N       0.027102   -2.106184   -0.681114
C       0.000562   -3.411341   -1.190085
C       0.023459   -4.296737   -0.185674
C       0.069772   -3.556880    1.143862
C       0.068435   -2.121829    0.693851
C       0.092645   -0.817324    1.132430
H       0.104905    1.705038    0.796896
H      -0.005683   -0.572727   -2.205752
H      -0.033033   -3.572274   -2.257714
H       0.011342   -5.371044   -0.286038
H      -0.792088   -3.805406    1.777036
H       0.963782   -3.820359    1.724204
H       0.126341   -0.472089    2.155404
