17

C       0.074865    1.556231    0.100685
C       0.080361    0.060813    0.029604
C      -0.896931   -0.884251    0.660100
C       0.585370   -0.997290    1.014051
C       1.319180   -1.635141   -0.133219
N       2.096902   -2.614030   -0.249172
N       0.800616   -0.656544   -1.041769
C       0.690308   -0.658363   -2.402018
O       1.255907   -1.447717   -3.127576
H       1.085018    1.958076   -0.023665
H      -0.565906    1.992021   -0.673820
H      -0.312368    1.884141    1.069363
H      -1.512222   -0.467448    1.452181
H      -1.376802   -1.658092    0.069034
H       0.956016   -0.879128    2.021692
H       2.384721   -2.725846   -1.222953
H       0.049197    0.164411   -2.775660
