18

O      -0.062217   -0.065683   -0.002609
C      -0.042809    1.144878    0.062190
N      -1.128918    1.966470    0.165803
C      -0.843957    3.388887    0.183558
C       0.684175    3.446270    0.421698
O       0.999648    3.668580    1.794099
C       1.530320    2.477341    2.379656
C       2.157009    1.691342    1.225176
C       1.207927    2.038930    0.070124
H      -2.060366    1.582932    0.133528
H      -1.117066    3.870693   -0.765289
H      -1.365156    3.904112    0.995961
H       1.136853    4.255090   -0.159555
H       2.247282    2.774608    3.149924
H       0.729593    1.896702    2.861497
H       3.166935    2.053871    1.013316
H       2.197191    0.614580    1.403193
H       1.688361    1.977613   -0.908933
