21

C      -0.212072    1.551754    0.756507
C      -0.066154    0.061488    0.486788
C       1.075084   -0.465370   -0.460830
C       1.984733   -0.119795    0.729380
O       3.007521    0.441390    0.976933
C       0.818591   -0.833185    1.432705
C       0.932924   -1.877926    0.245391
C      -0.287043   -2.740798   -0.087458
C       2.178687   -2.768221    0.241188
H       0.745310    2.032104    0.979463
H      -0.647674    2.058064   -0.111640
H      -0.880411    1.724219    1.607011
H      -1.036275   -0.381662    0.269308
H       1.212105   -0.259736   -1.521896
H       0.668401   -1.039402    2.491874
H      -1.237131   -2.206446   -0.112920
H      -0.149597   -3.213602   -1.066079
H      -0.382497   -3.546033    0.649170
H       2.077867   -3.573327    0.977654
H       2.310797   -3.239266   -0.739325
H       3.093226   -2.216163    0.472668
