15

C       0.154648    1.430476    0.315646
N       0.024447    0.007072    0.059945
C      -1.103170   -0.557909   -0.122991
N      -1.115869   -1.938822   -0.362467
C      -2.242807   -2.677299   -0.575294
C      -3.451661   -2.068983   -0.561725
N      -3.552143   -0.711133   -0.334841
C      -2.486661   -0.042117   -0.138645
F      -2.602979    1.265899    0.078342
H       1.217279    1.658651    0.435781
H      -0.229713    2.047889   -0.505926
H      -0.361642    1.748115    1.230225
H      -0.200325   -2.365276   -0.366862
H      -2.103381   -3.736484   -0.747669
H      -4.372294   -2.610849   -0.724975
