16

N      -0.030338    1.305677   -0.081980
C      -0.058853   -0.058873    0.004345
N      -1.122327   -0.768510    0.079144
C      -0.751432   -2.182007    0.184865
C       0.754263   -2.222218    0.024402
N       1.551108   -3.178471   -0.219442
O       0.880916   -4.406332   -0.300690
C       1.265788   -0.801226    0.097382
O       2.146751   -0.409793   -0.939921
H       0.785516    1.687611   -0.537311
H      -0.903878    1.735850   -0.349294
H      -1.063215   -2.607276    1.149074
H      -1.249373   -2.781454   -0.586553
H       1.593693   -5.021634   -0.504488
H       1.728471   -0.605729    1.080349
H       2.729754   -1.159937   -1.107005
