20

C      -0.253627    1.763452   -0.275671
C      -0.070038    0.249656   -0.088224
C      -1.419801   -0.468089    0.014711
C      -1.404281   -1.946170    0.468150
O      -2.157195   -1.639442    1.658956
C      -2.237376   -0.243777    1.307493
C       0.694458   -0.319449   -1.289176
N       1.860431   -0.964443   -0.996372
O       0.273261   -0.217172   -2.426168
H       0.709028    2.283942   -0.273857
H      -0.743148    1.960225   -1.232925
H      -0.865578    2.184719    0.527817
H       0.493654    0.062501    0.835842
H      -1.978311   -0.298643   -0.907625
H      -1.933769   -2.651475   -0.183406
H      -0.413376   -2.359419    0.701544
H      -1.762876    0.396956    2.063547
H      -3.274335    0.085728    1.167739
H       2.239600   -0.996621   -0.066983
H       2.410613   -1.326260   -1.758909
