13

O       0.069941    1.351842   -0.030745
C       0.052933   -0.004007   -0.030203
C      -0.020555   -0.719704   -1.227025
N      -0.039680   -2.050873   -1.270640
C       0.012845   -2.743152   -0.133859
C       0.088089   -2.132555    1.119741
O       0.139810   -2.875334    2.252976
C       0.106823   -0.744451    1.143069
F       0.178945   -0.101480    2.331005
H       0.123292    1.660420    0.881798
H      -0.064314   -0.176262   -2.166092
H      -0.004017   -3.827233   -0.193662
H       0.188071   -2.279934    3.010586
