18

C       0.103855    0.682250   -0.487323
O      -0.462813    0.010112    0.619112
C       0.489246   -0.466546    1.521647
C      -0.122589   -1.397246    2.602906
C       0.801551   -2.554368    2.141999
C       0.260043   -3.357737    0.943197
O       0.834165   -2.428131   -0.008334
C       1.412770   -1.640708    1.041724
H       0.717377    0.006815   -1.097403
H      -0.723849    1.055272   -1.095106
H       0.721900    1.536511   -0.167993
H       1.083657    0.360567    1.945537
H       0.056808   -1.058228    3.625308
H      -1.192890   -1.573698    2.470963
H       1.379711   -3.090395    2.892606
H       0.690896   -4.359422    0.821562
H      -0.831748   -3.421418    0.856862
H       2.476559   -1.441437    0.883823
