19

C      -0.164868    1.559556    0.018144
C       0.096876    0.042120   -0.038938
C       0.792316   -0.464424    1.134857
C       1.370622   -0.868541    2.119341
C       2.020634   -1.323638    3.223564
C       2.597363   -1.725976    4.210323
C       3.328606   -2.235181    5.372806
C       3.182297   -3.758710    5.507267
O       4.698329   -1.838415    5.350769
H       0.774676    2.112969    0.093708
H      -0.687944    1.886306   -0.885230
H      -0.778889    1.815158    0.885532
H      -0.855729   -0.492196   -0.151334
H       0.682983   -0.197198   -0.936049
H       2.924307   -1.763516    6.277280
H       3.574994   -4.260800    4.617347
H       3.743445   -4.098956    6.381450
H       2.131853   -4.041139    5.621858
H       5.061220   -2.102260    4.497681
