21

C      -0.155683    1.575615   -0.036936
C      -0.029520    0.059603   -0.008414
O      -1.284341   -0.558933   -0.249843
C       1.196042   -0.604308   -0.674557
C       2.118691   -0.287215    0.552869
C       2.590016   -1.749946    0.661654
C       1.104905   -1.853706    0.266754
C       0.704717   -0.619748    1.166088
C       0.306240   -0.642648    2.615795
H       0.792367    2.069702    0.192853
H      -0.471227    1.918899   -1.030884
H      -0.907248    1.911002    0.684901
H      -1.658198   -0.179865   -1.052089
H       1.502651   -0.608834   -1.722835
H       2.690782    0.628325    0.712053
H       3.321331   -2.085151   -0.081030
H       2.868403   -2.110672    1.657350
H       0.494394   -2.738771    0.095319
H       1.004589   -1.240466    3.211553
H       0.286617    0.367970    3.039325
H      -0.693375   -1.074189    2.731994
