17

C       1.077796    1.079701   -0.706995
C       0.088247    0.139271   -0.067531
N       0.596710   -1.136774    0.449672
C       0.046038   -0.157845    1.402291
C       0.996171    0.406166    2.381720
N       0.596741    1.232335    3.354740
N       1.721769    1.498001    4.006711
N       2.824753    0.918362    3.555656
C       2.384974    0.211176    2.514262
H       2.017353    1.104688   -0.150952
H       1.298271    0.765043   -1.732492
H       0.672439    2.096390   -0.743661
H      -0.886646    0.113318   -0.554175
H      -0.064490   -1.891183    0.290961
H      -0.944833   -0.337574    1.813202
H       1.733682    2.101900    4.812469
H       3.046415   -0.400516    1.924413
