19

C      -0.166789    1.551135   -0.032006
C       0.096393    0.046211   -0.056422
C       0.992715   -0.443235   -1.214607
C       1.485578   -1.813259   -0.748686
O       1.722831   -2.773551   -1.432426
C       1.590691   -1.753803    0.783702
O       2.831448   -1.099317    1.150446
C       2.124536    0.062003    1.643912
C       0.759204   -0.524361    1.222286
H       0.765091    2.120630    0.050352
H      -0.669771    1.875325   -0.948464
H      -0.805188    1.827194    0.814186
H      -0.870525   -0.466200   -0.155371
H       0.491279   -0.507662   -2.181867
H       1.865485    0.213026   -1.335453
H       1.469127   -2.728299    1.264009
H       2.264411    0.184246    2.724423
H       2.445533    0.981693    1.140871
H       0.046455   -0.656845    2.036805
