21

C      -0.139238    1.621796    0.253688
C      -0.047329    0.118074    0.134696
C      -1.308661   -0.597901   -0.343598
C      -1.100390   -1.799559   -1.285312
C      -0.101254   -2.898815   -0.826391
C       0.131167   -3.002339    0.664013
C       0.599349   -2.019676    1.438180
C       0.892213   -0.632255    1.004818
O       1.199140   -0.370537   -0.378100
H       0.788700    2.041075    0.650740
H      -0.327251    2.072548   -0.727463
H      -0.964327    1.907916    0.915242
H      -1.863206   -0.927569    0.544195
H      -1.955784    0.124547   -0.854449
H      -2.088009   -2.249938   -1.439162
H      -0.776980   -1.434501   -2.265507
H      -0.449783   -3.865402   -1.203233
H       0.862859   -2.708258   -1.304120
H      -0.064180   -3.964673    1.130702
H       0.756617   -2.206495    2.497771
H       1.503671   -0.051058    1.695758
