18

C       0.005421    1.545598    0.045370
C       0.034999    0.051535    0.070174
C       1.178697   -0.814435   -0.380532
C       0.655806   -0.990870    1.022279
N       1.463664   -0.998562    2.183917
C      -0.701972   -1.722354    0.953802
N      -1.198893   -0.758270   -0.088624
C      -0.706536   -3.129271    0.548705
N      -0.681353   -4.241389    0.234612
H       0.991661    1.955168    0.283322
H      -0.278786    1.917620   -0.945919
H      -0.711448    1.946185    0.772645
H       1.024741   -1.576649   -1.140111
H       2.141101   -0.311706   -0.422719
H       2.451179   -0.920744    1.983364
H       1.202856   -0.299685    2.869201
H      -1.236570   -1.626451    1.904537
H      -2.008275   -0.260267    0.271922
