21

C      -0.273236    1.547594    0.008412
C       0.113214    0.079507   -0.016830
C       0.624264   -0.499480   -1.358795
C      -0.457388   -1.572141   -1.127112
C       0.043035   -2.902225   -0.585178
C       0.992187   -2.822010    0.581860
C       1.368505   -1.763323    1.302408
C       0.971503   -0.314139    1.185835
O      -1.069120   -0.773963   -0.084733
H       0.615938    2.185848   -0.036463
H      -0.916683    1.785383   -0.842759
H      -0.820080    1.786588    0.926669
H       0.411465    0.151258   -2.209193
H       1.661884   -0.834555   -1.398216
H      -1.156852   -1.739994   -1.954034
H      -0.826739   -3.507904   -0.290548
H       0.521501   -3.458559   -1.405395
H       1.408647   -3.785248    0.873070
H       2.061526   -1.951728    2.121349
H       1.882688    0.302509    1.182094
H       0.431887   -0.028502    2.101245
