16

O       0.736373    1.112348    2.033952
C       0.401916    1.612676    0.980120
N       1.195572    1.700936   -0.116884
C       2.574795    1.288406   -0.095922
C       3.332920    1.988070   -1.210736
O       2.773474    2.674119   -2.038085
C       4.814553    1.768958   -1.278467
C       5.676441    2.062511   -0.112458
O       5.360459    0.726308   -0.470660
H      -0.600425    2.048821    0.803016
H       0.903211    2.227060   -0.928524
H       3.019195    1.495266    0.884443
H       2.694494    0.204478   -0.239959
H       5.236377    1.876979   -2.276024
H       6.702960    2.373422   -0.296968
H       5.232879    2.422375    0.813848
