14

O      -0.046239   -0.002217   -0.260226
C      -0.005847    1.159001    0.054459
C       1.247504    1.998710   -0.000670
N       2.444562    1.310358   -0.481214
C       2.596303    2.047107   -1.646318
O       3.351606    1.983146   -2.571900
C       1.387653    2.915679   -1.255479
C       0.392882    3.574459   -2.103394
O       1.307997    4.309135   -1.274648
H      -0.907519    1.701782    0.415152
H       1.378741    2.546797    0.940733
H       2.694938    0.346219   -0.315124
H       0.577540    3.641911   -3.173085
H      -0.648926    3.608484   -1.790632
