16

C       0.128923    1.638337    0.025481
C       0.095278    0.116461   -0.016378
C       0.772623   -0.675886   -1.184268
N       1.896269    0.012405   -1.833002
C       2.954863   -0.517891   -1.376223
O       2.878078   -1.525773   -0.464049
C       1.477702   -1.632290   -0.166588
C       0.999232   -0.664162    0.960798
O       1.298371   -0.522585    2.107456
H       1.132780    2.011156   -0.190664
H      -0.555686    2.066471   -0.711965
H      -0.167520    1.989889    1.017832
H      -0.933954   -0.247259    0.113293
H       0.091432   -1.084412   -1.932369
H       3.967256   -0.253001   -1.659178
H       1.199775   -2.682748   -0.075885
