18

C       0.022125    1.400850   -0.082820
N       0.020340   -0.038098    0.000575
N       0.079466   -0.800643   -1.138317
C       0.115886   -2.050590   -0.695924
N       0.258762   -3.124066   -1.580721
C       0.076177   -2.140042    0.721122
C       0.127860   -3.361448    1.582914
C       0.015453   -0.812545    1.104850
O      -0.027823   -0.222045    2.323202
H       0.994115    1.775125   -0.422782
H      -0.745398    1.730173   -0.788335
H      -0.192771    1.809022    0.905452
H       0.137874   -2.817057   -2.538508
H      -0.374834   -3.888180   -1.382258
H       0.839502   -4.091217    1.180916
H       0.462576   -3.126624    2.601430
H      -0.841056   -3.870818    1.676801
H      -0.092884   -0.911517    2.991683
