21

C      -0.054920    1.429457   -0.735455
C      -0.083997    0.066070   -0.046325
C      -1.402680   -0.667698   -0.301949
O      -2.245453   -0.170408   -1.023170
N      -1.574838   -1.901748    0.327569
C      -0.578939   -2.411094    1.278103
C      -2.767503   -2.664574    0.237712
C      -3.770388   -2.356018   -0.848984
N      -2.899390   -3.609900    1.086827
H       0.898614    1.928767   -0.541007
H      -0.182332    1.325437   -1.814991
H      -0.863445    2.068658   -0.373396
H       0.747700   -0.555149   -0.401929
H       0.068907    0.178488    1.033298
H      -0.811688   -2.107145    2.304192
H      -0.597082   -3.498682    1.248776
H       0.412906   -2.056307    1.010861
H      -4.509675   -3.161230   -0.868684
H      -4.272612   -1.404270   -0.672000
H      -3.297002   -2.271640   -1.828585
H      -3.766340   -4.113950    0.912252
