17

C      -0.021994    1.568869    0.002476
C       1.490616    1.968855   -0.024026
C       2.181020    0.591110   -0.035790
C       1.240722   -0.254996   -0.905668
C       0.038103    0.021581    0.022390
C       0.652744   -0.403520    1.366253
O       2.031475    0.003739    1.266880
H      -0.548840    1.968797    0.873567
H      -0.545961    1.925406   -0.889326
H       1.745138    2.554593   -0.913041
H       1.795540    2.539572    0.855841
H       3.242896    0.595226   -0.284622
H       1.107764    0.135294   -1.918386
H       1.536355   -1.306195   -0.948968
H      -0.901248   -0.479720   -0.214869
H       0.180613    0.092106    2.224049
H       0.604908   -1.489341    1.525861
