20

C       0.209463    1.545229   -0.302146
C      -0.008977    0.077835    0.003210
C       1.125023   -0.919402   -0.073478
C       0.482753   -0.613194    1.256730
C       1.228571    0.044639    2.396269
C       2.245178   -0.857156    3.168418
C       3.291446    0.229766    2.837245
O       4.436009    0.452245    3.123040
N       2.372027    0.919172    2.072872
H       1.240666    1.853707   -0.114560
H       0.004522    1.747004   -1.359029
H      -0.453626    2.187069    0.289287
H      -0.970838   -0.290033   -0.346507
H       0.954315   -1.888313   -0.529463
H       2.118050   -0.513431   -0.238953
H      -0.192973   -1.376613    1.637867
H       0.517578    0.532123    3.075366
H       2.058402   -0.984666    4.235856
H       2.438360   -1.825715    2.703750
H       2.392121    1.884827    1.778503
