18

C      -0.007441    1.397253    0.043013
C       1.425727    1.927169   -0.016688
N       2.116318    1.284084   -1.121091
C       3.314748    1.660018   -1.678348
C       3.689523    0.688465   -2.576644
C       2.687855   -0.321585   -2.552864
C       1.732732    0.068298   -1.640147
C       0.421328   -0.526873   -1.218722
O      -0.016398   -0.016060    0.035250
H      -0.487571    1.716798    0.971666
H      -0.591439    1.792100   -0.804816
H       1.427406    3.012915   -0.161296
H       1.938698    1.706756    0.928107
H       3.796420    2.576683   -1.376242
H       4.580189    0.700831   -3.185986
H       2.663014   -1.223392   -3.146231
H      -0.357919   -0.334408   -1.977940
H       0.503993   -1.611113   -1.101863
