20

C       0.382367    1.394553   -0.168747
C      -0.338503    0.103916    0.261167
C       0.278221   -0.541463    1.415943
C       0.790746   -1.051745    2.379563
C       1.436019   -1.703453    3.512293
C       2.516096   -2.714155    3.063048
N       3.198115   -3.344041    4.181081
C       2.713082   -4.454025    4.799265
O       1.702886   -5.041949    4.475672
H       1.421967    1.187817   -0.437463
H      -0.115531    1.840163   -1.035162
H       0.383697    2.127362    0.642765
H      -1.388258    0.329663    0.489040
H      -0.360346   -0.600474   -0.580385
H       1.895034   -0.953785    4.170203
H       0.697164   -2.241901    4.117200
H       2.045772   -3.503250    2.472903
H       3.257703   -2.213538    2.434816
H       4.016183   -2.902578    4.568925
H       3.360186   -4.775558    5.639982
