21

C      -0.224084    1.559593   -0.070040
C      -0.032794    0.040779   -0.026236
C      -1.320857   -0.688129   -0.398383
C       1.247239   -0.399758   -0.829607
C       1.964246   -0.531248    0.512860
O       3.116356   -0.514757    0.861681
C       0.659545   -0.471465    1.300436
C       0.730124    0.319457    2.607798
O       1.641130   -0.298301    3.497370
H       0.703333    2.097909    0.151234
H      -0.554912    1.871581   -1.066763
H      -0.981630    1.887944    0.649428
H      -1.652282   -0.411673   -1.405699
H      -1.184779   -1.774584   -0.376365
H      -2.130428   -0.437954    0.296528
H       1.127728   -1.374572   -1.315106
H       1.675081    0.302645   -1.549855
H       0.327128   -1.492424    1.527438
H       1.013452    1.363372    2.405644
H      -0.242812    0.337631    3.110757
H       2.483022   -0.362669    3.026245
