21

C      -0.107592    1.757014    0.649145
C      -0.351475    0.270329    0.690684
O       0.230587   -0.526535   -0.356335
C       0.665640   -0.754950    0.994796
C       2.113465   -0.420034    1.287099
C       0.201932   -2.085021    1.558364
C       0.784840   -3.314238    0.896302
C      -0.275004   -2.137718    2.948998
O      -1.196701   -2.181679    1.857404
H       0.930466    2.004296    0.420182
H      -0.738706    2.213156   -0.120833
H      -0.374347    2.213235    1.608865
H      -1.377782   -0.014461    0.917215
H       2.400181    0.531753    0.838702
H       2.288607   -0.365771    2.366830
H       2.776535   -1.189090    0.878416
H       1.867421   -3.376003    1.044570
H       0.325828   -4.215733    1.308525
H       0.588610   -3.280319   -0.179392
H      -0.179157   -3.061554    3.518393
H      -0.305722   -1.226863    3.546452
