20

C       0.144719    1.475681    0.223068
C      -0.114958   -0.010014   -0.062724
C       0.592071   -0.503066   -1.290976
C       2.003560   -1.008531   -1.369434
C       0.840718   -1.920915   -1.796749
C       0.563352   -3.270297   -1.204795
C       0.395756   -1.401649   -3.157181
O       0.295048   -1.849009   -4.264676
N       0.119013   -0.119572   -2.635503
H       1.212492    1.669730    0.367747
H      -0.202089    2.101493   -0.605898
H      -0.383376    1.798047    1.125142
H       0.210615   -0.612479    0.793620
H      -1.191192   -0.180630   -0.183538
H       2.693213   -0.611069   -2.109109
H       2.470567   -1.299564   -0.431254
H       0.823572   -3.298260   -0.141873
H      -0.493494   -3.537999   -1.302548
H       1.150514   -4.043586   -1.711172
H       0.414895    0.727387   -3.110579
