19

C      -0.076763    1.571836    0.151798
C       0.062355    0.055998    0.047302
C       0.610761   -0.401139   -1.288734
O       0.917750    0.367532   -2.172655
C       0.770285   -1.903878   -1.528361
O       0.448771   -2.596715   -0.347340
C       0.107627   -2.418752   -2.840669
O       1.372209   -2.842070   -3.377150
C       2.087438   -2.313028   -2.245587
H       0.889234    2.064726    0.015191
H      -0.748202    1.958490   -0.619325
H      -0.474339    1.853894    1.130541
H       0.714845   -0.352132    0.829901
H      -0.894714   -0.457192    0.208128
H       0.538762   -3.541560   -0.509427
H      -0.588545   -3.253537   -2.684076
H      -0.365282   -1.645905   -3.455604
H       2.735902   -1.475929   -2.522340
H       2.663351   -3.080659   -1.712199
