21

C      -0.029079    1.613787   -0.052087
C      -0.253587    0.113086    0.073131
O      -0.707201   -0.358650    1.091470
C       0.101422   -0.765303   -1.131589
C      -1.006746   -0.581894   -2.194054
C       1.492037   -0.421258   -1.765596
C       2.063370   -1.773552   -2.112840
C       1.370342   -2.767598   -1.561729
C       0.204469   -2.271189   -0.748051
H       1.026180    1.835417    0.146126
H      -0.252768    1.991876   -1.052812
H      -0.633331    2.132802    0.693180
H      -1.070037    0.450954   -2.550371
H      -0.789775   -1.220733   -3.056170
H      -1.984369   -0.867966   -1.793747
H       1.392738    0.239476   -2.635386
H       2.152328    0.101517   -1.059606
H       2.959146   -1.885649   -2.713726
H       1.613232   -3.821154   -1.647437
H       0.376264   -2.389918    0.327968
H      -0.726492   -2.808429   -0.963144
