15

C      -0.705480   -0.519008   -1.199111
C      -0.233922    0.179248   -0.342501
C       0.325709    1.021804    0.706099
C       1.607692    1.756801    0.349596
N       2.114241    2.527979    1.317515
C       3.237631    3.184758    1.034557
C       3.861238    3.079162   -0.206657
N       3.363444    2.313084   -1.176921
C       2.237493    1.655038   -0.892907
H      -1.125048   -1.137115   -1.953927
H      -0.414482    1.769655    1.018334
H       0.521757    0.420189    1.602920
H       3.653432    3.813090    1.818381
H       4.777953    3.622158   -0.421041
H       1.818862    1.026643   -1.672283
