16

C       0.100194    1.356358   -0.002442
N       0.051074   -0.092856   -0.023565
C      -1.081963   -0.627281   -0.008674
O      -1.157439   -2.001697   -0.027043
C      -2.397969   -2.582576   -0.010458
O      -3.433283   -1.974708    0.019235
C      -2.260006   -4.098894   -0.035061
N      -3.508441   -4.834999   -0.020412
H       0.674065    1.683830    0.871123
H       0.638351    1.710608   -0.888200
H      -0.888416    1.839626    0.024980
H      -2.056213   -0.134629    0.018872
H      -1.673876   -4.364401   -0.922982
H      -1.638611   -4.389499    0.820428
H      -4.045396   -4.571669    0.800986
H      -4.078010   -4.548439   -0.811507
