19

O      -0.193337    1.325581   -0.163132
C      -0.025755   -0.059217    0.044860
C      -0.546301   -0.628730    1.350718
C      -1.330686   -0.810084    0.060599
O      -2.498830   -0.064989   -0.105858
C      -1.417664   -2.179909   -0.579270
C      -0.074197   -2.810834   -0.824658
C       1.078989   -2.142792   -0.842697
C       1.198302   -0.658651   -0.618227
H       0.283414    1.799492    0.526211
H      -0.028392   -1.479062    1.782667
H      -0.966399    0.075863    2.061266
H      -2.213237    0.854426   -0.203525
H      -2.042656   -2.839883    0.036967
H      -1.954805   -2.067489   -1.531217
H      -0.072334   -3.880772   -1.016916
H       2.003730   -2.675471   -1.048903
H       1.341630   -0.147778   -1.580911
H       2.098695   -0.437286   -0.026154
