18

C       0.007806    1.511383   -0.028410
C       0.017967    0.008424   -0.034974
C       0.581755   -0.961776   -1.104047
C       0.011983   -1.897014   -0.015364
C       0.571248   -0.944018    1.069421
O      -0.309555   -0.924393    2.202808
C      -1.553396   -0.928836    1.602635
N      -2.672272   -0.911188    2.182244
C      -1.232743   -0.950544    0.140401
H       1.025568    1.908902   -0.106184
H      -0.572297    1.905859   -0.869096
H      -0.435795    1.893381    0.896953
H       0.065856   -0.971024   -2.067067
H       1.667574   -0.964823   -1.242579
H      -0.001505   -2.986312    0.008968
H       1.612091   -0.945108    1.388020
H      -2.550722   -0.894832    3.196787
H      -2.047811   -0.956223   -0.578816
