17

N       0.001055    1.493119   -0.024976
C       0.013433    0.043144    0.006133
C       0.822501   -0.484919    1.233332
C       0.880578   -2.045407    1.214597
N       1.679450   -2.550314    2.314905
C       2.198015    0.036430    1.147164
N       3.283486    0.407047    1.008989
C       0.187982   -0.026999    2.479585
N      -0.369464    0.296264    3.437132
H       0.867939    1.860025   -0.402843
H      -0.756795    1.835991   -0.602255
H      -1.012936   -0.317361    0.121931
H       0.437819   -0.439915   -0.888153
H      -0.146568   -2.404152    1.329209
H       1.227001   -2.340273    0.211435
H       1.472168   -3.525055    2.494297
H       2.670783   -2.477652    2.112391
