17

C      -0.066714    1.398067    0.103108
O       0.013571   -0.005825   -0.015794
C       0.673384   -0.532796   -1.176198
C      -0.058040   -0.133316   -2.474533
C       2.156354   -0.110254   -1.226356
C       0.597581   -1.992362   -1.014631
C       0.556947   -3.188979   -0.920354
H       0.919487    1.878891    0.161788
H      -0.633644    1.864315   -0.714490
H      -0.596747    1.590246    1.039327
H       0.037617    0.939073   -2.666555
H       0.371089   -0.668138   -3.325453
H      -1.117529   -0.389642   -2.400602
H       2.645504   -0.349883   -0.279247
H       2.670623   -0.644793   -2.028876
H       2.254292    0.962008   -1.417905
H       0.514085   -4.245788   -0.824490
