22

C      -0.216248    1.599960   -0.099569
C      -0.043639    0.079845   -0.073134
O       1.034271   -0.291100    0.783727
C      -1.357931   -0.637000    0.291281
C      -1.388404   -2.137478    0.048874
C      -0.508210   -3.011964    0.942553
O      -0.566163   -4.372179    0.566087
C      -2.633217   -2.736002   -0.496975
N      -1.424082   -2.631653   -1.343556
H       0.740654    2.081486   -0.317022
H      -0.942292    1.908853   -0.858406
H      -0.572567    1.968703    0.870907
H       0.278428   -0.258346   -1.065939
H       0.829553    0.029697    1.669490
H      -1.584172   -0.431164    1.348450
H      -2.169798   -0.175076   -0.285100
H       0.519411   -2.627161    0.919110
H      -0.864179   -2.948945    1.978811
H      -0.465311   -4.370177   -0.396690
H      -2.898294   -3.752013   -0.224688
H      -3.470019   -2.076401   -0.710972
H      -1.514461   -1.862318   -2.002063
