16

O      -0.120941    0.273948    1.151561
C      -0.141574    1.266547    0.471739
O      -1.337988    1.880760    0.245373
C      -1.485236    2.760501   -0.865277
C      -0.879816    4.130590   -0.684589
C      -0.371682    4.614192    0.614712
N       0.573913    4.289174   -0.482318
C       1.386696    3.139029   -0.382731
C       1.101018    1.865085   -0.067069
H      -1.079000    2.293224   -1.771613
H      -2.565421    2.864820   -1.000331
H      -1.277245    4.860282   -1.389258
H      -0.421918    5.669014    0.866782
H      -0.412610    3.929816    1.456377
H       2.423826    3.364567   -0.624803
H       1.926356    1.161560   -0.050359
