20

C      -0.203658    1.552580    0.057300
C       0.058299    0.047678   -0.008384
N       0.932310   -0.330267   -1.112195
C       1.859691   -1.306847   -0.819550
O       2.506766   -1.935665   -1.627883
C       1.897327   -1.414339    0.680760
C       2.208562   -0.111719    1.397094
C       0.780022   -0.540589    1.216391
C      -0.063407   -0.919453    2.408864
H       0.729492    2.109564    0.176927
H      -0.697059    1.903990   -0.854985
H      -0.861333    1.788627    0.899832
H      -0.911942   -0.466556   -0.103623
H       0.695562   -0.146417   -2.074557
H       2.188809   -2.360778    1.116950
H       2.623383   -0.197738    2.395943
H       2.610399    0.708835    0.811899
H      -0.540075   -0.039429    2.856549
H      -0.856088   -1.622438    2.128910
H       0.544819   -1.392889    3.185236
