18

C      -0.071557    1.133715   -0.709428
O      -0.267548   -0.268858   -0.613705
C      -1.289096   -0.630693    0.281179
O      -2.566469   -0.238586   -0.170477
C      -3.166367   -1.082854   -1.154459
C      -2.218256   -2.162836   -1.648139
O      -1.693031   -2.894945   -0.530021
C      -1.194859   -2.133952    0.480324
N      -0.708344   -2.612614    1.542493
H       0.752960    1.291002   -1.407290
H      -0.968785    1.641564   -1.081860
H       0.197528    1.560989    0.267045
H      -1.152803   -0.134986    1.247852
H      -4.053162   -1.550235   -0.706900
H      -3.493839   -0.460602   -1.995732
H      -2.752696   -2.890213   -2.262827
H      -1.393905   -1.734104   -2.224169
H      -0.725593   -3.634741    1.512596
