18

C       0.152153    1.478523   -0.046611
N       0.038787    0.032062   -0.010944
C       0.030584   -0.807618   -1.109110
C      -0.122983   -2.071734   -0.610332
N      -0.209859   -2.037015    0.759374
C      -0.115472   -0.763456    1.090910
C      -0.168335   -0.265875    2.479727
C      -1.227110   -0.796908    3.391319
N       0.167977   -1.211795    3.555483
H       0.949969    1.822890    0.617218
H       0.396341    1.787751   -1.063841
H      -0.784931    1.960792    0.249211
H       0.137813   -0.422947   -2.109928
H      -0.167682   -3.001813   -1.156077
H       0.196608    0.745221    2.639360
H      -1.620141   -0.166669    4.184896
H      -1.929288   -1.502016    2.956256
H       0.291008   -2.124644    3.116837
