19

C       0.061765    1.498935   -0.154996
O       0.273022    0.129176    0.098978
C       0.537089   -0.601962   -1.056549
C       0.714320   -2.081652   -0.722068
O       0.474409   -2.540903    0.360063
C       1.238832   -2.916500   -1.906209
C       1.070889   -4.350763   -1.753084
C       0.924732   -5.536935   -1.618505
C       0.745914   -6.970934   -1.446861
H       0.944838    1.971979   -0.613257
H      -0.800096    1.662839   -0.821124
H      -0.137339    1.977616    0.806180
H      -0.287233   -0.522679   -1.791680
H       1.443330   -0.240780   -1.578528
H       0.763593   -2.556988   -2.829617
H       2.303881   -2.660220   -2.015472
H       1.694468   -7.507612   -1.558867
H       0.350273   -7.200624   -0.451531
H       0.045460   -7.377499   -2.184705
