16

C       0.131050    1.541428    0.147576
C      -0.063630    0.028566   -0.047816
C       0.695891   -0.490331   -1.241924
N       0.276695   -0.083481   -2.450164
C       0.956608   -0.529573   -3.503911
N       2.015594   -1.342073   -3.502473
C       2.423959   -1.740635   -2.295260
C       1.795213   -1.341085   -1.123260
H       1.179587    1.781580    0.351005
H      -0.172470    2.079800   -0.753781
H      -0.469274    1.902258    0.987572
H       0.247357   -0.514061    0.850863
H      -1.128075   -0.178370   -0.205397
H       0.607632   -0.195455   -4.478769
H       3.285305   -2.404918   -2.268598
H       2.144495   -1.679339   -0.154233
