17

C       0.028387    1.541817    0.241942
O       1.462252    1.467632   -0.111978
C       1.154584    0.285889   -0.881486
C       0.562841    0.633310   -2.296078
O      -0.642457   -0.136652   -2.359371
C      -0.655730   -0.920002   -1.143215
C       0.590345   -1.852787   -1.209141
C       1.706448   -1.113284   -1.035158
C      -0.102550    0.024202   -0.068902
H      -0.099374    1.832603    1.286489
H      -0.511430    2.231992   -0.412526
H       0.325267    1.697558   -2.387051
H       1.243930    0.348752   -3.105466
H      -1.629340   -1.399311   -1.059667
H       0.546698   -2.888597   -1.521634
H       2.734312   -1.428688   -1.158500
H       0.143799   -0.528302    0.836432
