18

O       0.374910    1.205321    0.529449
C       0.093913   -0.101137    0.043018
C      -1.379861   -0.389793   -0.017319
C      -2.167043   -0.926182    1.113282
N      -1.938817   -1.799047   -0.055218
C      -2.933507   -1.344978   -1.096037
C      -2.330134    0.075060   -1.149807
C      -3.184853    1.263995   -0.806078
O      -4.358640    1.213118   -0.536727
H       0.166545    1.837014   -0.165663
H       0.552266   -0.268583   -0.943796
H       0.562408   -0.800573    0.742397
H      -1.613086   -1.239428    1.992543
H      -3.171827   -0.559811    1.309650
H      -2.802719   -1.917356   -2.015108
H      -3.974829   -1.401491   -0.769853
H      -1.775898    0.279820   -2.072550
H      -2.632808    2.233235   -0.774141
