13

C       0.153322   -1.186581   -0.005914
C       0.038705    0.012115    0.002244
C      -0.109813    1.409074    0.011990
C      -1.206944    2.221712    0.031717
C      -0.721226    3.573284    0.032393
C       0.645568    3.466446    0.012795
O       1.031201    2.176870    0.000340
C      -1.483919    4.763549    0.049543
C      -2.145479    5.769037    0.064270
H       0.253761   -2.243793   -0.013090
H      -2.236953    1.905991    0.044308
H       1.431995    4.202616    0.005904
H      -2.725064    6.658530    0.077217
