19

C       0.090391    1.517278    0.057621
C       0.044506   -0.012565    0.064463
C       0.931237   -0.570029    1.192869
O      -1.313400   -0.364509    0.282041
C       0.502227   -0.548240   -1.317515
C       0.390518   -2.062907   -1.443242
N       1.312628   -2.657602   -2.244507
O      -0.479277   -2.715605   -0.879308
H       1.109629    1.886753   -0.093221
H      -0.550249    1.914972   -0.734850
H      -0.279394    1.898587    1.013585
H       0.583049   -0.181611    2.153766
H       0.874117   -1.661495    1.229778
H       1.980514   -0.280894    1.063595
H      -1.371700   -1.316322    0.095873
H      -0.153949   -0.114733   -2.082439
H       1.523651   -0.219748   -1.540374
H       2.021508   -2.135534   -2.727801
H       1.241836   -3.649687   -2.403994
