22

C      -0.180014    1.572996    0.030280
C      -0.031738    0.049596   -0.000404
C       0.693065   -0.459068   -1.253175
C       0.815447   -1.979755   -1.289183
C      -0.462685   -2.757132   -1.677152
O       0.116780   -3.189965   -2.922614
C       1.411273   -2.647976   -2.563675
C       2.018677   -1.813706   -3.674172
H       0.797884    2.066683    0.003860
H      -0.753412    1.932345   -0.831442
H      -0.696539    1.906140    0.935814
H       0.513151   -0.285643    0.892091
H      -1.025015   -0.414784    0.060012
H       0.158165   -0.108505   -2.145529
H       1.693689   -0.008104   -1.298446
H       1.283946   -2.330206   -0.364384
H      -0.714142   -3.603790   -1.024439
H      -1.366255   -2.153751   -1.834993
H       2.101639   -3.465651   -2.306368
H       1.371019   -0.979095   -3.953808
H       2.994120   -1.417245   -3.371845
H       2.168447   -2.438438   -4.560570
