16

O       0.447879    1.080303    0.381370
C       0.221446   -0.257978    0.136958
C       0.623576   -1.112794   -1.106424
C      -0.242165   -2.034415   -0.198375
C       0.565757   -1.495432    1.021417
C      -1.225736   -0.838348   -0.039017
C      -2.202350   -0.763811    1.099870
O      -2.341944   -1.594405    1.964667
H       1.393073    1.213197    0.513611
H       0.196797   -0.815234   -2.067560
H       1.680860   -1.378587   -1.191433
H      -0.517765   -3.067582   -0.387868
H       1.622091   -1.777382    1.052597
H       0.092371   -1.570278    1.998334
H      -1.714285   -0.490572   -0.957557
H      -2.832719    0.155103    1.089808
