19

O      -0.103880    1.374595    0.055047
C      -0.028829   -0.013018    0.020717
C       0.247462   -0.880617    1.295347
C      -0.468678   -1.966169    0.418519
C      -1.343814   -0.812805   -0.137654
C       0.577293   -2.173312   -0.710708
C       0.896226   -0.678185   -1.021791
C      -1.043827   -3.176968    1.068365
O      -2.221608   -3.385374    1.226191
H       0.790885    1.731744    0.057503
H       1.283037   -1.065126    1.596469
H      -0.359018   -0.563090    2.145282
H      -2.112694   -0.499934    0.569585
H      -1.763477   -0.922162   -1.140778
H       1.450953   -2.735099   -0.367518
H       0.150275   -2.699937   -1.568273
H       0.628345   -0.388102   -2.041165
H       1.949515   -0.425066   -0.859517
H      -0.281638   -3.908293    1.429895
