17

C      -0.014047    1.567433   -0.072778
C      -0.038768    0.041595    0.044106
N      -1.383055   -0.510240    0.041821
C      -2.129007   -0.917844    1.136594
N      -3.299830   -1.374381    0.903490
C      -3.455368   -1.296777   -0.555800
C      -2.150171   -0.712238   -1.101974
N      -1.729703   -0.429806   -2.270035
H       1.019570    1.927133   -0.075294
H      -0.490247    1.880666   -1.004638
H      -0.538419    2.037182    0.765265
H       0.496248   -0.404424   -0.799864
H       0.453685   -0.286928    0.965283
H      -1.691629   -0.838948    2.127424
H      -3.651868   -2.290917   -0.973856
H      -4.312119   -0.664394   -0.816506
H      -2.431285   -0.662636   -2.971010
