18

C      -0.046685    1.471883   -0.027525
C       0.006412    0.017218   -0.014681
C       0.057223   -1.186035    0.012504
C       0.082562   -2.650648   -0.001097
O      -1.224490   -3.203994    0.177628
C       0.758963   -3.187139   -1.274974
C       0.860184   -4.706939   -1.283071
O       1.496465   -5.088209   -2.494602
H       0.759536    1.901211    0.577351
H       0.053033    1.868182   -1.043906
H      -0.995587    1.836572    0.380867
H       0.646531   -3.007759    0.870918
H      -1.810450   -2.750011   -0.438341
H       0.193037   -2.855851   -2.153781
H       1.761472   -2.754063   -1.360759
H       1.438556   -5.043317   -0.405892
H      -0.145164   -5.141050   -1.197046
H       1.507043   -6.048728   -2.535868
