17

C       0.046124    1.443014   -0.021306
N       0.111389   -0.008223   -0.015580
C       0.586838   -0.598529    0.981849
O       1.110697   -0.006982    2.117191
C       1.220976   -1.052529    3.084740
C      -0.197263   -1.622114    3.391652
C       0.055700   -2.644904    2.277356
C       1.512294   -2.326373    2.249266
N       0.696714   -2.023225    1.079227
H       0.747890    1.831480   -0.768915
H      -0.955751    1.750690   -0.339450
H       0.272801    1.910246    0.944001
H       1.866571   -0.727693    3.896365
H      -0.234103   -2.114431    4.366997
H      -1.033233   -0.924350    3.291036
H      -0.459399   -3.581842    2.107298
H       2.407182   -2.929676    2.165997
