18

C      -0.434884    1.441114   -0.026921
C       0.092842    0.010371    0.007282
C       1.133295   -0.258761   -1.084165
O       1.172569    0.205768   -2.185919
O       2.060404   -1.143443   -0.630642
C       1.782342   -1.532514    0.726119
C       0.811548   -0.484779    1.253788
C       1.121730    0.368517    2.426584
N       0.169897   -0.758044    2.534787
H       0.366772    2.164465    0.145239
H      -0.865853    1.648046   -1.009022
H      -1.211135    1.596981    0.729301
H      -0.737139   -0.682677   -0.203857
H       1.328217   -2.530259    0.728929
H       2.728151   -1.571613    1.270275
H       2.055200    0.229334    2.965486
H       0.731747    1.381632    2.449106
H      -0.785603   -0.407177    2.537002
