14

C       0.018046   -1.163004    0.061267
C       0.049338    0.038800    0.042374
C       0.073382    1.456158    0.014833
C       0.232712    2.331462   -1.196457
C       1.197656    2.487144   -0.048158
C       0.466678    3.159872    1.115384
O      -0.616831    2.198475    1.047795
C       1.171980    3.090167    2.397610
N       1.745546    3.056500    3.399624
H      -0.006810   -2.224720    0.086147
H       0.651254    1.842832   -2.069648
H      -0.523950    3.084999   -1.395531
H       2.265962    2.346804   -0.122773
H       0.114529    4.184432    0.950015
