20

C      -0.013487    1.551651   -0.060554
C      -0.057924    0.053940    0.103230
N       1.208069   -0.689044   -0.151824
C       0.602345   -0.754859    1.186160
C       1.421910   -0.202445    2.325559
C      -0.304417   -1.974908    1.461395
O      -0.804432   -2.022665    2.793514
C      -1.407256   -1.842921    0.431914
C      -1.295591   -0.707123   -0.262637
H       0.948076    1.949711    0.269562
H      -0.142684    1.829333   -1.112978
H      -0.809345    2.037362    0.514592
H       1.007374   -1.533432   -0.685654
H       1.962024    0.693200    2.011736
H       0.792910    0.040080    3.185655
H       2.161315   -0.940100    2.656273
H       0.262468   -2.908107    1.347019
H      -1.462184   -1.322572    2.874469
H      -2.173584   -2.599686    0.310725
H      -1.974743   -0.369261   -1.038617
