16

C       0.037994    1.453106   -0.004973
N      -0.002099   -0.001431   -0.017393
C      -0.049280   -0.686103    1.179216
O      -0.060065   -0.152611    2.267763
C       0.008356   -0.665888   -1.248222
N      -0.026194   -1.995009   -1.327571
N      -0.002123   -2.243366   -2.655344
C       0.046032   -1.124256   -3.406558
C       0.054746   -0.060382   -2.528570
H       0.950587    1.822170   -0.485181
H      -0.829463    1.871624   -0.526516
H       0.022453    1.766104    1.037931
H      -0.076116   -1.774700    1.029533
H      -0.021085   -3.199274   -2.965462
H       0.070106   -1.161049   -4.483979
H       0.089169    0.986045   -2.776475
