18

C      -0.003650    1.359792   -0.363225
C       1.444984    1.530065    0.193463
C       1.108583    0.275883    0.990651
C       1.628876   -1.006806    1.649149
C       0.251867   -1.711778    1.752267
C       0.772050   -0.859611    2.884776
C       0.067772    0.338461    2.188769
C      -0.690543   -0.601480    1.185296
N       0.045142   -0.109788   -0.010494
H      -0.741213    1.941811    0.202647
H      -0.156270    1.531404   -1.430236
H       2.198540    1.353020   -0.578621
H       1.688789    2.436382    0.750697
H       2.540973   -1.567526    1.494452
H       0.153100   -2.786682    1.684610
H       0.968476   -1.095183    3.921133
H      -0.301638    1.249131    2.654254
H      -1.764630   -0.787677    1.138970
