15

N       0.030000    1.424122   -0.141741
C       0.044646    0.023580   -0.043568
C      -1.061703   -0.787762   -0.031428
O      -2.389469   -0.475717    0.013239
N      -0.635771   -2.109140   -0.001875
C       0.716186   -2.154903    0.009611
C       1.191647   -0.847853   -0.027090
C       2.595083   -0.480413   -0.054110
O       3.524664   -1.263640   -0.029735
H       0.774900    1.862583    0.384486
H      -0.856959    1.803041    0.169301
H      -2.708175   -0.291027   -0.878941
H      -1.260491   -2.895779    0.053306
H       1.267346   -3.079295    0.045632
H       2.789451    0.616067   -0.105874
