16

C      -0.263141    1.550437   -0.040060
C       0.055265    0.059944    0.026726
N       0.829888   -0.439480   -1.109948
C       1.961989   -1.123545   -0.788348
O       2.868508   -1.464176   -1.518465
C       1.924530   -1.390552    0.719718
O       3.185390   -1.432207    1.302976
C       0.985008   -0.293255    1.215683
O       0.963723    0.240732    2.287399
H       0.649976    2.136851   -0.175790
H      -0.948670    1.770161   -0.863924
H      -0.733720    1.859516    0.896056
H      -0.879439   -0.509499    0.141788
H       0.661818   -0.139853   -2.058927
H       1.369746   -2.341223    0.856254
H       3.797016   -1.631783    0.577802
