19

O       0.144024    1.451753   -0.087156
C       0.082632    0.045836   -0.048088
C       0.183002   -0.630283    1.353827
C      -1.343762   -0.282099    1.506297
C      -1.338863   -0.599373   -0.032973
C      -1.054555   -2.114170    0.030684
O      -2.146200   -2.969795    0.182138
C       0.289938   -2.666585   -0.375738
C       0.071718   -2.133905    1.035188
H      -0.441610    1.816783    0.583004
H       0.781444   -0.270615   -0.820538
H       0.934863   -0.312149    2.077018
H      -1.946799   -0.935990    2.139746
H      -1.557101    0.760278    1.763642
H      -2.122982   -0.260482   -0.711856
H      -2.512243   -3.142390   -0.692182
H       0.309788   -3.750931   -0.426004
H       0.943011   -2.188249   -1.095364
H       0.073098   -2.842728    1.855160
