18

C       0.131497    1.496729    0.321240
C       1.660054    1.499202    0.010023
C       1.347890    0.150684   -0.735924
C       2.002786   -0.685091    0.362525
C       0.630453   -1.003787    0.970079
C       0.802093   -0.684189    2.477711
C       1.707698    0.545691    2.385929
C       2.235843    0.608149    1.151627
N      -0.002011    0.031596   -0.011878
H      -0.203452    1.815110    1.311965
H      -0.434029    2.041624   -0.445893
H       2.154044    2.370226   -0.422466
H       1.385461   -0.004753   -1.813647
H       2.803201   -1.414211    0.225682
H       0.167285   -1.973766    0.762015
H      -0.134706   -0.407541    2.978276
H       1.191867   -1.565356    3.008856
H       1.538901    1.408294    3.023965
