15

C      -0.120700    1.431497    0.026578
C      -0.002366   -0.018115    0.025165
C       0.086005   -1.218479    0.017865
C       0.206730   -2.668717    0.020709
C       0.620330   -3.267094    1.389679
O      -0.609275   -3.741684    1.931201
C      -1.548145   -3.822953    0.952727
O      -2.631515   -4.290307    1.089031
O      -1.069760   -3.301000   -0.208150
H       0.512862    1.881314   -0.745039
H      -1.154276    1.735397   -0.170049
H       0.173467    1.853219    0.993398
H       0.875150   -3.000740   -0.778296
H       1.313201   -4.106681    1.272920
H       1.045658   -2.523734    2.063566
