16

C       0.103505    1.537710    0.003029
C       0.009633    0.002282   -0.001918
C       0.749825   -0.548939    1.205641
O       1.821122   -1.096706    1.150510
C      -1.464651   -0.495581    0.014351
O      -2.170811   -0.028413    1.161346
C      -2.154436   -0.151200   -1.229805
C      -2.720709    0.172597   -2.239766
H       1.145289    1.857741   -0.078493
H      -0.452150    1.956555   -0.841132
H      -0.304219    1.955727    0.929347
H       0.499951   -0.397462   -0.894994
H       0.228301   -0.390262    2.174525
H      -1.453570   -1.588009    0.116254
H      -2.493067    0.858364    0.968508
H      -3.229237    0.437286   -3.134321
