13

C      -0.013765    1.477318    0.010144
C      -0.006511    0.026864    0.002284
C       0.002212   -1.183792   -0.004303
C       0.013685   -2.540753   -0.011701
C       0.015027   -3.753179   -0.018230
C       0.112616   -5.204269   -0.027000
N      -1.095269   -5.839012   -0.018881
O       1.179176   -5.788684   -0.040235
H       1.005861    1.878029    0.002366
H      -0.537008    1.872543   -0.867731
H      -0.519768    1.863035    0.902240
H      -1.961188   -5.329526   -0.007896
H      -1.106181   -6.845670   -0.024161
