19

C      -0.152537    1.589876   -0.004589
C       0.057478    0.075252   -0.009585
C       0.879965   -0.479037   -1.154450
C       1.634429   -1.511455   -0.782804
C       1.452371   -1.831634    0.681066
C       0.822137   -0.507716    1.237772
N       1.820826    0.462030    1.706070
C      -0.098020   -0.776742    2.351517
N      -0.821901   -1.011290    3.221262
H       0.793796    2.134461   -0.016460
H      -0.730267    1.885166   -0.886514
H      -0.705900    1.904113    0.884494
H      -0.933205   -0.401200   -0.035828
H       0.803138   -0.080427   -2.160040
H       2.275037   -2.094730   -1.434009
H       0.776223   -2.686733    0.814949
H       2.380036   -2.073313    1.210834
H       2.326870    0.075154    2.497583
H       2.500273    0.606086    0.963365
