17

C       0.104393    1.562357   -0.091147
C       0.128136    0.080748    0.060932
O       0.539006   -0.716078   -1.056107
C       1.182425   -1.682199   -0.175629
C       0.658256   -0.941142    1.037907
O       1.327630   -0.891095    2.232734
C      -0.860005   -0.770590    0.889777
C      -1.483906   -0.165644    2.025156
C      -1.940619    0.326385    3.026718
H       1.097624    1.939975   -0.351590
H      -0.592844    1.852708   -0.885116
H      -0.222187    2.033373    0.838953
H       0.836646   -2.707167   -0.348060
H       2.272471   -1.627483   -0.270534
H       0.687793   -0.677201    2.925790
H      -1.437591   -1.528337    0.362912
H      -2.386647    0.775990    3.879411
