18

C       0.247770    1.394007   -0.074009
C       0.144632   -0.086659    0.099507
O      -1.102890   -0.698663   -0.213658
C      -0.950358   -1.619617    0.908213
C       0.441399   -1.067549    1.209382
C       1.293618   -1.075563   -0.046932
C       1.319543   -2.190353   -1.056608
N       2.211815   -1.981118   -2.080295
O       0.647734   -3.201290   -0.988717
H       1.221143    1.759621    0.264928
H       0.128228    1.665582   -1.129143
H      -0.536256    1.903803    0.494453
H      -1.675125   -1.374202    1.691915
H      -1.028506   -2.660902    0.599878
H       0.872229   -0.921449    2.191268
H       2.256077   -0.590826    0.103103
H       2.575167   -1.060707   -2.262146
H       2.156549   -2.617750   -2.860090
