18

C      -0.047167    1.542251    0.111549
C       0.011215    0.038407    0.020858
O      -1.165292   -0.474841   -0.498286
C       1.316849   -0.648756   -0.269197
C       0.740310   -0.737240    1.140198
O       1.344836   -0.001422    2.174166
C       0.119919   -2.037079    1.549308
N       0.223744   -2.329394    2.868387
O      -0.446152   -2.769833    0.739625
H       0.843281    1.946929    0.593366
H      -0.136653    1.965466   -0.893575
H      -0.926115    1.845442    0.687534
H      -1.146601   -1.439227   -0.354581
H       1.291525   -1.561292   -0.855004
H       2.207800   -0.037662   -0.379012
H       2.282640   -0.225400    2.188352
H       0.552497   -1.616176    3.497823
H      -0.297895   -3.114177    3.222524
