17

O      -0.056832    1.360311   -0.253356
N       0.079186   -0.038486   -0.231097
C      -1.019927   -0.605107    0.082931
C      -1.065204   -2.103451    0.153246
C      -1.821155   -2.535038    1.419326
C      -3.222285   -1.938594    1.472410
O      -4.168529   -2.503318    1.985749
N      -3.351397   -0.718197    0.859784
C      -2.277850    0.159043    0.421294
H       0.833962    1.649395   -0.477257
H      -1.596864   -2.491726   -0.726173
H      -0.048806   -2.501598    0.123847
H      -1.928994   -3.619264    1.481994
H      -1.273939   -2.211600    2.313944
H      -4.274379   -0.316894    0.943847
H      -2.028613    0.918563    1.176488
H      -2.604422    0.718049   -0.464697
