23

C      -0.007088    1.538110    0.102047
C       0.041134    0.022056    0.004499
C       0.732241   -0.492533   -1.263974
C       0.911236   -2.013171   -1.179911
C       1.758511   -2.591769   -2.301341
O       1.546591   -2.349534    0.052449
C       0.843391   -1.861975    1.170866
C       1.593921   -2.268476    2.420718
O       0.737801   -0.457833    1.153357
H       1.005459    1.952931    0.090289
H      -0.565942    1.959442   -0.739218
H      -0.492342    1.845157    1.032546
H      -0.988802   -0.378737    0.027992
H       0.144035   -0.228169   -2.150327
H       1.717079   -0.018716   -1.354680
H      -0.088795   -2.483907   -1.197088
H       2.757066   -2.144220   -2.294041
H       1.866714   -3.672892   -2.178695
H       1.295582   -2.394791   -3.273176
H      -0.179043   -2.291873    1.158414
H       2.595063   -1.830956    2.402843
H       1.064721   -1.910862    3.306808
H       1.681436   -3.356295    2.466439
