19

C      -0.585378    1.310238    0.026831
C       0.064563   -0.070197    0.062892
C       0.856665   -0.507098   -1.189306
C       1.800688   -1.621106   -0.656990
C       2.216463   -1.139455    0.740234
C       1.067224   -0.246431    1.215860
O       0.962386    0.257178    2.303222
C      -0.045776   -1.007623   -2.289755
O      -0.100604   -0.567503   -3.407758
H       0.152309    2.081589   -0.216954
H      -1.383046    1.358241   -0.719613
H      -1.005172    1.546818    1.007647
H      -0.713220   -0.830722    0.251223
H       1.438646    0.333759   -1.581782
H       1.245815   -2.564954   -0.583786
H       2.644970   -1.793116   -1.327514
H       2.417063   -1.936167    1.460700
H       3.117775   -0.515428    0.697869
H      -0.695543   -1.861236   -1.973754
