18

O       0.431864    0.732305   -0.856437
C       0.093531   -0.375816   -0.068439
C       0.429324   -0.129281    1.408516
O       1.348812    0.564991    1.794840
N      -0.493568   -0.797543    2.146131
C      -1.564912   -1.399870    1.355494
C      -1.389317   -0.718966   -0.004301
C      -2.409888    0.260073   -0.517694
C      -2.213233   -1.074915   -1.202122
H       1.081877    1.226048   -0.333142
H       0.664387   -1.265477   -0.392382
H      -0.458005   -0.815172    3.152763
H      -1.443277   -2.490371    1.287101
H      -2.545534   -1.197363    1.798096
H      -3.314520    0.408878    0.062770
H      -2.027987    1.143362   -1.014701
H      -1.721469   -1.082157   -2.169249
H      -2.986287   -1.828666   -1.087251
