20

C       0.218059    1.510588    0.087499
C      -0.038698   -0.010947    0.000303
C       0.612212   -0.720164    1.209762
C      -1.559867   -0.284019   -0.008053
C       0.554481   -0.532629   -1.237529
C       1.042419   -0.962209   -2.250023
C       1.634547   -1.483475   -3.479979
C       2.619299   -2.547810   -3.240071
N       3.394896   -3.384949   -3.064710
H       1.289955    1.727096    0.092637
H      -0.231481    2.033584   -0.761392
H      -0.218552    1.911084    1.008471
H       0.179117   -0.341105    2.141432
H       0.446232   -1.800062    1.166590
H       1.690936   -0.543002    1.233813
H      -2.041762    0.206292   -0.858702
H      -1.764771   -1.356316   -0.071608
H      -2.013479    0.099342    0.911990
H       0.857902   -1.883396   -4.144943
H       2.131664   -0.681439   -4.041141
