19

C      -0.024693    1.518910    0.004635
C       1.273903    0.733288   -0.013789
C      -0.042604    0.023116    0.034586
C      -0.503597   -0.944982    1.102023
C      -1.899038   -1.448969    0.745918
C      -2.708278   -0.654820   -0.276926
O      -1.893716   -0.606369   -1.456743
C      -0.578167   -0.945597   -1.047119
C      -0.706508   -2.032532    0.052917
H      -0.278881    2.056782    0.912753
H      -0.339838    2.010434   -0.910271
H       1.840771    0.702774   -0.939498
H       1.888583    0.742661    0.881116
H      -0.102392   -1.038984    2.104818
H      -2.417812   -2.032038    1.497851
H      -3.651037   -1.155009   -0.526732
H      -2.935501    0.362548    0.067177
H       0.033193   -1.119423   -1.932388
H      -0.412067   -3.072103    0.026374
