16

O       0.222515    1.123839   -0.576267
C      -0.012605    0.028508    0.281139
C      -1.438740   -0.517101    0.168643
C      -2.453705    0.185800    0.902695
N      -3.284900    0.726047    1.500361
C      -1.883301   -1.100043   -1.169172
O      -0.876057   -1.099501   -2.153129
C      -1.665762   -2.043990   -0.026983
O      -0.578302   -2.894268   -0.078051
H       0.141589    0.793070   -1.478020
H       0.691786   -0.794206    0.109665
H       0.147359    0.388646    1.300397
H      -2.884110   -0.868552   -1.521538
H      -1.213491   -1.546803   -2.936573
H      -2.518387   -2.476530    0.485465
H      -0.128909   -2.725295   -0.918210
