21

O      -0.084022    1.455308   -0.072597
C      -0.017040    0.042283    0.061111
C      -1.433655   -0.503320   -0.090959
C      -1.486107   -2.007003    0.024703
C      -0.908369   -2.907676   -1.101910
C      -2.190963   -3.795443   -1.035927
C      -2.773882   -2.888077    0.080011
C      -2.299832   -3.240237    1.497049
O      -1.078424   -2.482031    1.337591
H       0.793869    1.812158    0.089984
H       0.639002   -0.397851   -0.707571
H       0.379790   -0.253556    1.042653
H      -2.067880   -0.051453    0.680127
H      -1.833191   -0.195603   -1.064861
H      -0.781390   -2.394291   -2.059235
H       0.031557   -3.393601   -0.832121
H      -2.776317   -3.776570   -1.957840
H      -2.038553   -4.840168   -0.750986
H      -3.787011   -2.505019   -0.040351
H      -2.918762   -2.830510    2.305910
H      -2.108690   -4.302160    1.699843
