15

N       0.158356    1.371657    0.319143
C      -0.050782   -0.055828    0.010838
C      -1.500499   -0.324217    0.029173
N      -2.636258   -0.534132    0.020704
C       0.566483   -0.555341   -1.273545
C       1.722795   -1.299760   -1.406626
N       1.925103   -1.456253   -2.735475
N       0.976602   -0.870225   -3.490044
C       0.149745   -0.322297   -2.607692
H       1.158431    1.553618    0.298250
H      -0.244117    1.935466   -0.425373
H       0.382064   -0.623755    0.843683
H       2.392059   -1.720503   -0.672258
H       2.670484   -1.955044   -3.191502
H      -0.726078    0.209523   -2.950494
