17

O       0.003206   -0.111643   -0.237660
C      -0.031217    1.089915   -0.058767
C      -1.346003    1.878639    0.051545
N      -1.240945    3.169105    0.729297
C      -0.553817    3.143665    2.066853
C       0.596524    3.967390    1.500955
C       1.121250    3.273670    0.249520
N       1.102138    1.849803    0.074146
C      -0.168142    4.014085    0.180968
H      -1.737029    2.042050   -0.959927
H      -2.063341    1.234426    0.567559
H      -1.150336    3.665311    2.819949
H      -0.297555    2.144253    2.439417
H       1.143865    4.753934    2.003744
H       1.974779    3.760528   -0.212599
H       1.966706    1.330178    0.120720
H      -0.385807    4.823414   -0.507594
