15

O       0.091016    1.339485    0.256553
C       0.060229    0.016506   -0.022499
C       0.050643   -0.746938   -1.169255
C       0.061973   -0.789825   -2.624834
C       0.032921   -2.078562   -3.021215
C      -0.001359   -3.041670   -1.839626
C       0.012996   -2.080082   -0.683256
N      -0.000525   -2.173427    0.631085
N       0.029624   -0.859123    1.020007
H       0.111644    1.827540   -0.572104
H       0.089116    0.066865   -3.286875
H       0.033033   -2.419230   -4.048502
H      -0.896121   -3.676908   -1.854310
H       0.860425   -3.721132   -1.839354
H       0.027025   -0.623128    1.997494
