20

C      -0.075437    1.548829    0.019366
C       0.005214    0.020643    0.023527
C       0.771252   -0.537852    1.227806
O       0.090986   -0.099977    2.396539
C       0.521690   -0.755109    3.576277
C       0.174781   -2.245143    3.535133
C       0.597827   -2.822118    2.210001
C       0.895299   -2.040085    1.175116
H       0.924400    1.996129   -0.019589
H      -0.636714    1.909606   -0.847898
H      -0.568886    1.911176    0.924201
H      -1.001263   -0.413960    0.030378
H       0.499377   -0.334242   -0.889195
H       1.789218   -0.098460    1.219179
H       1.609787   -0.631916    3.706005
H       0.024059   -0.247982    4.407909
H       0.676033   -2.767379    4.360300
H      -0.903462   -2.388537    3.689511
H       0.669057   -3.903151    2.121894
H       1.239418   -2.461031    0.233549
