21

C      -0.030385    1.565275    0.052536
C      -0.043814    0.028670    0.007737
C       0.767563   -0.566201    1.169156
C      -1.461181   -0.494180   -0.032622
C      -2.578789   -0.189811   -1.064077
C      -3.272709   -1.163876   -0.093660
C      -1.964458   -1.972257    0.146534
O      -2.042618   -1.904485    1.602668
C      -2.506520   -0.600006    1.139555
H       0.996333    1.944516    0.035591
H      -0.563200    1.999280   -0.799208
H      -0.505457    1.932815    0.969518
H       0.434309   -0.281316   -0.933702
H       0.340165   -0.282548    2.135813
H       0.789298   -1.658200    1.131350
H       1.799324   -0.200889    1.135263
H      -2.962963    0.834087   -1.084858
H      -2.410379   -0.551336   -2.083200
H      -4.287428   -1.560422   -0.099160
H      -1.614224   -2.894820   -0.317628
H      -2.817246    0.138041    1.879435
