19

O       0.033204   -0.037326    0.082044
C       0.011698    1.172048   -0.002420
C      -1.306810    1.951288   -0.026176
C      -1.365424    3.021181   -1.118236
C      -1.186010    4.487803   -0.812079
C      -0.080386    3.722837   -1.498085
C       1.200087    3.326482   -0.808252
C       1.363674    3.283115    0.675245
C       1.264068    1.971413   -0.096358
H      -2.104400    1.216653   -0.150577
H      -1.449268    2.400912    0.965241
H      -2.036147    2.782212   -1.936795
H      -1.748404    5.209393   -1.394474
H      -1.039083    4.776079    0.223890
H       0.055245    3.927395   -2.555138
H       2.096756    3.587065   -1.361242
H       2.335421    3.529235    1.087686
H       0.534787    3.560378    1.316050
H       2.159836    1.368964   -0.188882
