16

C       0.011280    1.429746   -0.155989
C       1.480127    1.860708    0.125157
N       2.158731    0.596112   -0.078251
C       3.456663    0.139884   -0.121537
C       3.395469   -1.236063   -0.119202
C       2.020241   -1.632911   -0.066795
C       1.295795   -0.466970   -0.029403
N      -0.047741   -0.035607    0.057231
H      -0.711666    1.948881    0.475831
H      -0.234940    1.643785   -1.201552
H       1.821627    2.632124   -0.570358
H       1.627015    2.228916    1.149947
H       4.292467    0.816337   -0.192925
H       4.245269   -1.899428   -0.181013
H       1.630497   -2.638038   -0.067405
H      -0.459724   -0.265925    0.955386
