23

C      -0.116139    1.533251   -0.015400
C       0.042323    0.012395   -0.005189
O      -1.254326   -0.580143   -0.082594
C       1.044909   -0.581147   -1.038566
C       2.399401   -0.042516   -0.527761
C       2.217365   -0.049662    1.027978
C       0.784858   -0.595458    1.211074
C       0.793723   -2.098621    0.848510
C       0.968203   -2.088156   -0.706125
H       0.827371    2.072088    0.091702
H      -0.570263    1.859304   -0.959937
H      -0.781592    1.839355    0.797359
H      -1.683474   -0.243606   -0.875996
H       0.836085   -0.340961   -2.085154
H       3.229086   -0.675878   -0.854331
H       2.603545    0.964303   -0.902686
H       2.951460   -0.684978    1.531232
H       2.326279    0.953933    1.448530
H       0.338058   -0.372603    2.182237
H       1.602887   -2.627178    1.361261
H      -0.147108   -2.573350    1.130580
H       0.109320   -2.553315   -1.193308
H       1.866526   -2.617581   -1.037219
