19

C       0.174960    1.490156    0.385150
C      -0.115634    0.062676   -0.019653
C       0.472528   -0.597777   -1.240211
C       1.439078    0.079613   -2.195635
O       2.355812   -0.842510   -2.735924
N       0.888536   -0.995479    0.097301
C       2.181365   -0.878985    0.591650
N       2.232444   -0.546323    1.924527
O       3.190520   -1.095556   -0.065585
H       1.173526    1.816910    0.090817
H      -0.557755    2.160280   -0.076208
H       0.095489    1.607319    1.470739
H      -1.111057   -0.273675    0.270900
H      -0.135993   -1.357778   -1.729001
H       0.864129    0.492717   -3.032999
H       1.950411    0.918489   -1.703646
H       2.882758   -1.141196   -1.974849
H       1.418788   -0.725826    2.490263
H       3.125151   -0.705467    2.364472
