20

C      -0.950385    1.080238   -0.059003
C       0.117508    0.007638    0.083917
C       1.321378    0.015680   -0.903793
C       2.246287   -0.345378    0.280187
C       1.140331    0.122754    1.252472
C       2.740259   -1.812584    0.394529
N       4.205120   -1.729871    0.513453
C       4.474285   -0.493018    0.474465
O       3.478672    0.414643    0.345912
H      -0.501332    2.079843   -0.070965
H      -1.516194    0.957174   -0.989171
H      -1.663992    1.044641    0.771655
H      -0.349189   -0.983497    0.093948
H       1.303563   -0.669840   -1.755529
H       1.537644    1.026851   -1.261546
H       1.302421    1.165967    1.539975
H       0.975420   -0.475770    2.152629
H       2.326339   -2.322098    1.272024
H       2.473899   -2.409390   -0.485133
H       5.468329   -0.063458    0.536710
