21

C      -0.739553    1.357760    0.078275
C      -0.035807    0.015450   -0.054393
O      -0.949404   -0.996647   -0.471399
C       1.299628   -0.023174   -0.868224
C       1.932412   -0.907897    0.245735
O       3.238574   -0.626916    0.684995
C       0.745112   -0.538602    1.148259
C       0.874775    0.088348    2.509455
C       0.209648   -1.256661    2.343117
H      -0.059247    2.134413    0.439486
H      -1.130254    1.684339   -0.893813
H      -1.584580    1.283083    0.770601
H      -1.321662   -0.723789   -1.317493
H       1.239027   -0.446577   -1.873798
H       1.783416    0.958036   -0.918939
H       1.934479   -1.968067   -0.021183
H       3.265028    0.299474    0.949091
H       1.866944    0.108607    2.950531
H       0.255017    0.945110    2.753317
H      -0.868428   -1.313012    2.449720
H       0.744008   -2.137144    2.685726
