13

O       0.046738    1.378111    0.009594
C      -0.007971   -0.020077    0.002633
C      -1.469122   -0.423109    0.012370
O      -2.414780    0.308214    0.023355
N      -1.676212   -1.842394    0.006580
C      -2.846155   -2.529793    0.012568
N      -2.586049   -3.810208    0.003357
N      -1.215911   -3.910861   -0.008495
N      -0.664512   -2.754435   -0.006783
H       0.972076    1.639925   -0.001962
H       0.459775   -0.476913   -0.883789
H       0.474008   -0.486112    0.876605
H      -3.812689   -2.055662    0.023167
