15

O       0.141193    1.084703    0.916000
C      -0.022983    0.172670   -0.161707
C      -1.371724   -0.372464   -0.144595
C      -2.485148   -0.845346   -0.158090
C      -3.737856   -1.373468   -0.169464
C      -4.852483   -1.842230   -0.179799
C      -6.204125   -2.396943   -0.193440
C      -6.265200   -3.804888    0.204548
C      -6.326919   -4.958893    0.528406
H       1.043219    1.418733    0.873652
H       0.148872    0.664327   -1.133786
H       0.696332   -0.660645   -0.096368
H      -6.846055   -1.801658    0.471447
H      -6.635339   -2.282696   -1.198157
H      -6.375654   -5.979738    0.816665
