18

C      -0.256022    1.576911    0.015123
C       0.009787    0.071548   -0.015187
N       0.670966   -0.376944   -1.275523
C       2.025071    0.130007   -1.486720
C       1.824039   -1.224794   -0.883182
C       1.866902   -1.245824    0.595797
C       0.885465   -0.481106    1.104323
C       0.664479   -0.269317    2.533540
O      -0.215508    0.421467    3.003260
H       0.672829    2.154643   -0.008252
H      -0.861612    1.864312   -0.848727
H      -0.791193    1.832039    0.931426
H      -0.963642   -0.435483    0.021363
H       2.313866    0.212419   -2.530949
H       2.420505    0.904510   -0.834883
H       2.024865   -2.125436   -1.455930
H       2.597587   -1.802120    1.172586
H       1.373605   -0.817386    3.193634
