17

C      -0.026220    1.569357   -0.007741
C       1.519300    1.533308    0.010920
O       2.098738    1.457115    1.314132
C       2.176310    0.069923    1.661944
O       2.392155   -0.608976    0.428830
C       1.479373    0.041695   -0.412794
C      -0.044010    0.001184    0.038852
C      -0.167778   -0.529061    1.438757
C       0.883450   -0.451898    2.254957
H      -0.512295    2.092923    0.816616
H      -0.400129    1.955947   -0.960653
H       2.074274    2.273319   -0.569061
H       3.047090   -0.073325    2.303547
H       1.669814   -0.227991   -1.449893
H      -0.739406   -0.484878   -0.648531
H      -1.118313   -0.943446    1.761747
H       0.864399   -0.786022    3.286064
