14

O      -0.429691    0.664031    0.678801
C       0.347258    0.915783   -0.199655
C       1.456683    1.992654   -0.092608
C       1.522736    2.631763    1.321993
O       2.778230    2.150122    1.860150
C       3.332498    1.406673    0.887571
N       2.741209    1.250580   -0.227183
C       1.257021    2.949017   -1.173890
C       1.030648    3.722727   -2.065144
H       0.358138    0.379943   -1.168101
H       1.551166    3.721363    1.297745
H       0.707186    2.278060    1.955384
H       4.294671    0.975102    1.140777
H       0.852836    4.413757   -2.852373
