24

C      -0.476263    1.413594   -0.731127
C      -0.442771    0.464000    0.473062
C      -1.704419   -0.378090    0.562344
C      -1.854519   -1.732968   -0.060856
C      -0.753861   -2.396500   -0.851120
O      -0.997867   -3.800602   -0.831763
N      -1.839037   -1.570121    1.396052
C      -0.727023   -2.059749    2.205303
C      -0.968015   -3.515687    2.601538
H       0.408121    2.057585   -0.751444
H      -0.510916    0.858602   -1.674440
H      -1.359236    2.061213   -0.698009
H       0.454154   -0.158923    0.423463
H      -0.353364    1.052692    1.395603
H      -2.602849    0.242803    0.578362
H      -2.835958   -2.009906   -0.446330
H      -0.784577   -2.011117   -1.883209
H       0.239942   -2.166031   -0.446827
H      -0.319535   -4.229748   -1.361992
H       0.257073   -1.973566    1.718831
H      -0.683723   -1.427155    3.100472
H      -0.167242   -3.874144    3.256564
H      -1.921262   -3.614703    3.128476
H      -1.000264   -4.147405    1.709715
