16

C       0.168678    1.535154   -0.005349
C       0.014554    0.032683   -0.065390
C      -1.196895   -0.565941    0.635799
C      -2.499281   -0.418128   -0.127935
F      -2.439246   -1.004536   -1.334876
F      -3.510778   -0.987016    0.544527
F      -2.832341    0.869476   -0.330774
C       0.646987   -0.738227   -1.146418
O       1.221377   -0.706858    0.163130
H       1.082280    1.842866   -0.518826
H      -0.685968    2.035931   -0.466497
H       0.233490    1.869223    1.036157
H      -1.029193   -1.634957    0.786629
H      -1.341047   -0.108023    1.619591
H       0.223245   -1.692824   -1.452276
H       1.210230   -0.213530   -1.916476
