19

O       0.393915    0.357081   -0.801635
C      -0.210969    0.314880    0.485926
C      -1.542377   -0.268607    0.383762
C      -2.649623   -0.736810    0.319464
C      -3.972610   -1.343995    0.225469
C      -3.919424   -2.821993   -0.181202
C      -3.393157   -3.801437    0.890238
O      -4.691944   -4.416754    1.030357
C      -5.240934   -3.607185   -0.027798
H       1.267183    0.747863   -0.694467
H       0.392119   -0.283108    1.188823
H      -0.293827    1.324922    0.919921
H      -4.486007   -1.255671    1.192812
H      -4.586306   -0.789083   -0.496704
H      -3.439372   -2.920205   -1.156538
H      -2.636314   -4.516793    0.545704
H      -3.048233   -3.342249    1.825103
H      -6.108423   -3.022257    0.306635
H      -5.535092   -4.209731   -0.896675
