14

C       0.023384    1.527673    0.006904
C       0.005627    0.032411   -0.004736
C      -0.031815   -0.819840   -1.060216
O      -0.035885   -2.097474   -0.650596
N      -0.000064   -2.116702    0.740667
C       0.024516   -0.860174    1.117595
C       0.066582   -0.508297    2.569616
H       0.923189    1.916604    0.497104
H      -0.000485    1.930117   -1.009102
H      -0.838211    1.937038    0.546597
H      -0.057963   -0.667582   -2.128781
H       0.963734    0.073599    2.807370
H      -0.799578    0.099955    2.852028
H       0.068492   -1.415655    3.176171
