21

C      -0.484505    1.291863    0.229595
C      -0.186302   -0.177116    0.466650
C       1.023711   -0.908083   -0.101491
C       0.773408   -0.800871    1.429770
C       2.092122   -0.020553    1.636403
C       2.096402    1.311320    2.383755
C       3.181131   -0.947067    2.210260
C       2.253804   -0.062880    0.085238
O       3.132257    0.305753   -0.644014
H       0.418191    1.895849    0.122868
H      -1.056868    1.404229   -0.697316
H      -1.085647    1.711394    1.043685
H      -1.077435   -0.794901    0.359592
H       0.918618   -1.742657   -0.784122
H       0.464447   -1.614421    2.076376
H       1.986478    1.145250    3.461553
H       3.049731    1.826564    2.224246
H       1.295461    1.980576    2.068493
H       3.203123   -1.912725    1.695289
H       4.166716   -0.484722    2.104905
H       2.999685   -1.133747    3.274441
