13

O       0.063404    1.512057   -0.062032
C       0.047027    0.103084    0.002751
C       0.643692   -0.532534   -1.181292
C       1.151182   -1.027307   -2.150903
C       0.724268   -0.416170    1.252816
N       1.567631    0.314790    1.927924
O       1.971438   -0.532251    2.966115
C       1.309200   -1.675526    2.785030
N       0.524920   -1.683527    1.755406
H       0.979682    1.802231    0.024568
H      -1.009576   -0.183484    0.061975
H       1.590120   -1.467923   -3.012171
H       1.484008   -2.464528    3.501747
