21

O       0.314539    1.243878    0.076911
C      -0.023003   -0.098524   -0.079756
C      -0.528888   -0.947145    1.061822
C      -1.453114   -0.585299   -0.091273
C      -2.620240    0.358958    0.105634
O      -2.244705    1.312488    1.096198
C      -3.180411    0.916897   -1.239586
C      -4.284106   -0.174799   -1.190462
C      -3.980196   -0.372323    0.319785
H      -0.413311    1.658022    0.562110
H       0.659427   -0.568871   -0.781506
H      -0.188491   -1.972758    1.159457
H      -0.708516   -0.433754    1.999955
H      -1.681997   -1.378350   -0.798567
H      -2.951738    1.960505    1.174381
H      -3.599115    1.920133   -1.102599
H      -2.499389    0.937957   -2.092986
H      -5.297292    0.130977   -1.457049
H      -4.024274   -1.054234   -1.784615
H      -3.943606   -1.388192    0.719888
H      -4.647611    0.226633    0.948987
