18

C       0.375068    1.040560   -0.493548
N       0.031968   -0.123607    0.322116
C       0.417957   -0.017563    1.715966
C      -1.203815   -0.697150    0.057670
C      -1.816900   -1.074233   -1.130439
N      -1.349931   -0.898935   -2.447483
N      -3.024856   -1.621107   -0.843092
N      -3.218139   -1.625532    0.447160
N      -2.115392   -1.067570    0.998976
H       1.455909    1.204627   -0.446446
H       0.085504    0.855362   -1.529712
H      -0.132516    1.956296   -0.149477
H      -0.179879    0.719212    2.282902
H       0.330794   -0.992368    2.206542
H       1.464781    0.292606    1.772628
H      -0.545249   -1.486564   -2.644832
H      -2.089145   -1.154753   -3.093744
H      -2.060683   -0.972547    1.999066
