19

C       0.538539    0.976194    0.784475
N       0.151334   -0.306864    0.227833
C       0.483473   -0.697535   -1.028677
O       1.134812    0.009626   -1.791784
C      -0.033197   -2.074482   -1.441168
C      -1.072662   -1.916418   -2.572695
C       1.086932   -3.033729   -1.900609
N       2.014451   -2.478028   -2.719112
O       1.064591   -4.208326   -1.584417
H       1.089649    1.513608    0.012602
H      -0.340051    1.562404    1.074009
H       1.181380    0.849034    1.662156
H      -0.370129   -0.946106    0.804230
H      -0.500528   -2.582501   -0.593629
H      -1.406352   -2.900522   -2.911317
H      -1.945015   -1.356482   -2.222047
H      -0.635923   -1.379429   -3.417426
H       2.053706   -1.470057   -2.802961
H       2.790244   -3.050859   -3.008357
