22

C      -0.235360    1.535054   -0.002967
C      -0.043157    0.016877    0.008924
C      -1.362790   -0.706777   -0.241878
C       1.155815   -0.437998   -0.886772
C       2.045651   -0.585450    0.373786
C       2.885175   -1.847022    0.512242
O       2.867268    0.577967    0.457664
C       0.764901   -0.471169    1.256655
H       0.713599    2.047725    0.174041
H      -0.630003    1.871267   -0.969144
H      -0.944490    1.845371    0.773910
H      -1.786302   -0.429540   -1.214693
H      -1.231371   -1.794529   -0.233813
H      -2.104481   -0.454672    0.525513
H       0.973703   -1.395685   -1.382581
H       1.525739    0.281868   -1.620518
H       3.675850   -1.862777   -0.244669
H       3.359678   -1.892609    1.501107
H       2.273442   -2.747194    0.397257
H       3.274593    0.584959    1.331239
H       0.834870    0.224841    2.098202
H       0.421507   -1.441766    1.627943
