22

C       0.860194    2.251294   -2.012678
C       0.394941    0.843134   -1.698524
C      -1.114861    0.690809   -1.723713
C       1.161135   -0.366070   -2.093363
C       2.652997   -0.210165   -1.998371
C       3.132524   -1.065861   -0.844160
C       2.442039    0.233617   -0.548496
C       3.034102    1.302175    0.323053
N       0.976177    0.005590   -0.609112
H       1.943988    2.333901   -2.091870
H       0.430798    2.570582   -2.968933
H       0.511081    2.954232   -1.247587
H      -1.511895    0.912386   -2.720429
H      -1.406923   -0.324728   -1.446039
H      -1.581018    1.381074   -1.012517
H       0.661116   -1.239872   -2.504878
H       3.318461    0.154507   -2.773245
H       2.637305   -2.007507   -0.621844
H       4.206480   -1.065990   -0.680822
H       4.118945    1.354202    0.189028
H       2.618005    2.291419    0.115578
H       2.838506    1.073148    1.376962
