18

C      -0.108542    1.589771    0.149464
C       1.379061    1.270925    0.004897
N       1.249404    0.010299    0.915420
C       1.961197   -0.816664   -0.149582
C       1.147348    0.113235   -1.042872
C       0.544096   -0.211729   -2.406835
C      -0.682400   -1.021522   -1.943534
C      -0.971624   -0.906877   -0.633616
C      -0.014623    0.066053   -0.040411
H      -0.429089    1.939351    1.134112
H      -0.579553    2.156246   -0.657886
H       2.251682    1.917637    0.115934
H       3.049594   -0.695436   -0.132119
H       1.691581   -1.877569   -0.128314
H       0.227565    0.670122   -2.979235
H       1.208165   -0.790989   -3.057874
H      -1.272224   -1.603205   -2.646240
H      -1.820030   -1.368414   -0.142161
