20

O      -0.026823    1.502416    0.261602
C      -0.176188    0.087327    0.285500
C      -1.624090   -0.273532   -0.027652
N      -1.952744   -0.164242   -1.449714
C      -3.192117   -0.875650   -1.826363
C      -4.346678    0.125889   -1.645505
C      -3.667218    1.472623   -1.919914
O      -4.207951    2.528961   -2.116599
C      -2.151459    1.212162   -1.921409
H       0.910539    1.710963    0.305656
H       0.473972   -0.398178   -0.455789
H       0.077192   -0.309090    1.281566
H      -1.763894   -1.321140    0.259774
H      -2.275315    0.332243    0.629918
H      -3.118196   -1.172390   -2.880691
H      -3.303543   -1.788007   -1.236895
H      -5.205644   -0.022701   -2.303521
H      -4.717879    0.132922   -0.613283
H      -1.608455    1.936729   -1.315416
H      -1.799607    1.318716   -2.958543
