21

C       1.728524    0.761814    0.826598
C       2.024888   -0.743469    0.751987
C       3.375724   -1.079601    1.391518
O       1.056422   -1.464323    1.514725
C       2.067783   -1.162704   -0.721403
O       2.366015   -2.519074   -1.047603
C       1.102111   -1.983442   -1.477765
C      -0.130125   -2.687308   -0.957719
O      -0.445869   -3.801303   -1.781416
H       2.497369    1.351570    0.318864
H       0.765831    0.995963    0.355188
H       1.686577    1.077284    1.872657
H       3.384188   -0.759588    2.436728
H       3.540123   -2.158522    1.350241
H       4.194072   -0.582195    0.862914
H       0.190551   -1.082331    1.336865
H       2.641374   -0.449546   -1.321560
H       1.051921   -1.804156   -2.554985
H       0.021436   -2.978257    0.085331
H      -0.997508   -2.018619   -1.018522
H       0.277504   -4.431153   -1.691714
