16

O      -0.014774    1.391569    0.004235
C      -0.078608    0.002009    0.064864
C      -0.445630   -0.789733    1.298428
C      -1.554919   -0.110616    2.063086
N      -2.825248   -0.824951    2.031649
C      -2.435737   -0.094831    0.818536
C      -3.256786    0.956238    0.308396
C      -3.890714    1.860146   -0.171258
C      -1.345632   -0.798811    0.025464
H      -0.909886    1.749099   -0.001451
H       0.743833   -0.435479   -0.498212
H       0.176048   -1.593446    1.677840
H      -1.446396    0.681772    2.793348
H      -2.698930   -1.828217    1.910149
H      -4.472038    2.648214   -0.582488
H      -1.522282   -1.600871   -0.683071
