17

N       0.613085    1.229706    0.698840
C       0.344714    0.045306    0.353362
O       1.233495   -0.960635    0.172040
C       0.534365   -2.205143   -0.077450
C      -0.897073   -1.971004    0.415204
C      -1.061277   -0.472081    0.118590
N      -2.007414    0.265956    0.919287
C      -3.344992    0.082648    0.782064
O      -3.852360   -0.788395    0.104341
H       1.615677    1.366225    0.829485
H       0.574143   -2.415500   -1.152447
H       1.068812   -2.993468    0.455480
H      -1.641117   -2.586033   -0.089116
H      -0.969447   -2.141499    1.493710
H      -1.303485   -0.353643   -0.948310
H      -1.643579    1.101685    1.358715
H      -3.930949    0.810701    1.375875
