21

C      -0.022853    1.530433   -0.207122
C      -0.000455    0.026277    0.099420
C      -1.375059   -0.548879    0.243085
C      -2.404465   -0.325267    1.368219
C      -2.916797   -1.793594    1.089910
O      -4.250872   -2.010816    0.742218
C      -5.136361   -1.899349    1.833550
C      -1.926703   -1.884407   -0.068618
O      -2.153568   -0.771497   -0.941494
H       0.992937    1.921474   -0.315133
H      -0.565612    1.726113   -1.136430
H      -0.514575    2.091443    0.594462
H       0.517588   -0.511681   -0.702190
H       0.559306   -0.158005    1.025088
H      -1.978368   -0.198683    2.366283
H      -3.124208    0.468704    1.158487
H      -2.610619   -2.459191    1.913503
H      -5.124215   -0.890168    2.271980
H      -6.141189   -2.107698    1.459015
H      -4.895544   -2.622811    2.628985
H      -1.469537   -2.767685   -0.501039
