21

C       0.020378    1.531507   -0.003937
C      -0.001903    0.002927    0.028665
O       0.590184   -0.486021    1.234765
C      -1.413270   -0.575976   -0.005640
C      -2.188597   -0.346170   -1.345240
C      -2.399950   -1.830445   -1.711522
C      -2.888943   -2.472571   -0.395363
C      -1.426367   -2.124395   -0.047833
O      -1.077539   -2.396321   -1.446160
H       1.051026    1.903900    0.026858
H      -0.442892    1.922146   -0.915166
H      -0.513404    1.938132    0.861270
H       0.540847   -0.392134   -0.844094
H       1.499075   -0.172092    1.267881
H      -1.963431   -0.202533    0.864857
H      -3.123369    0.206715   -1.221556
H      -1.583329    0.159690   -2.101952
H      -2.803931   -2.080102   -2.692775
H      -3.701199   -1.999759    0.163809
H      -3.040634   -3.547554   -0.496074
H      -0.821982   -2.662248    0.679025
