16

C       0.509078    1.562092   -0.092274
O       0.539050    0.172282    0.122966
C      -0.057606   -0.557071   -0.924163
C       0.039921   -2.033572   -0.572898
O      -0.557755   -2.762864   -1.619488
C      -0.526369   -4.152763   -1.405010
H       1.051332    1.845824   -1.008353
H      -0.522076    1.941062   -0.175063
H       0.991943    2.037401    0.765080
H      -1.115511   -0.276213   -1.054387
H       0.452641   -0.369170   -1.882964
H       1.097682   -2.315168   -0.443281
H      -0.469836   -2.220754    0.386328
H      -1.069513   -4.437815   -0.489866
H      -1.007346   -4.628182   -2.263364
H       0.505177   -4.530387   -1.321028
