25

C      -0.035626    1.562862   -0.047668
C       0.018774    0.029800    0.019364
C       0.866450   -0.423792    1.217246
C      -1.407448   -0.563941    0.036263
O      -2.174496   -0.072734   -1.064793
C      -1.446503   -2.098563    0.080009
C      -2.870075   -2.663183    0.100169
C      -2.899729   -4.185288    0.100179
O      -4.257983   -4.598584    0.123276
H       0.967582    1.983886   -0.169320
H      -0.660849    1.899053   -0.876860
H      -0.458633    1.974912    0.876622
H       0.505522   -0.336228   -0.899536
H       0.369815   -0.176747    2.163513
H       1.062546   -1.499147    1.211124
H       1.834830    0.086728    1.213966
H      -1.931131   -0.174253    0.920682
H      -1.754907   -0.389409   -1.873171
H      -0.900307   -2.489476   -0.793185
H      -0.901176   -2.451305    0.962679
H      -3.401548   -2.305011    0.990562
H      -3.429832   -2.293707   -0.763913
H      -2.382748   -4.567823   -0.796245
H      -2.351847   -4.571068    0.976486
H      -4.279664   -5.559804    0.127888
