19

C      -0.216856    1.430662    0.205977
O       0.373138    0.178686   -0.070235
C       0.779193   -0.518940    1.079983
C      -0.392670   -1.259096    1.817657
C       0.092406   -2.543242    1.132412
O      -0.400869   -3.613598    0.900738
C       1.401610   -1.892081    0.677948
C       1.807516   -2.203200   -0.765492
O       2.079567   -3.585693   -0.901379
H       0.476872    2.090398    0.749194
H      -0.465637    1.888260   -0.753900
H      -1.136764    1.332619    0.801016
H       1.404962    0.117589    1.718915
H      -0.273490   -1.302385    2.905056
H      -1.410226   -0.938309    1.581412
H       2.216638   -2.170760    1.355484
H       1.017241   -1.868549   -1.449866
H       2.723623   -1.668755   -1.034966
H       1.283689   -4.056318   -0.621181
