23

C      -0.091422    1.556519   -0.103251
C       0.012092    0.030314   -0.039909
C       0.820269   -0.585262   -1.209723
C       1.356455   -1.934953   -0.686562
C       1.515078   -1.727319    0.812442
C       2.184849   -0.459744    1.283991
C       0.675953   -0.532904    1.222846
C      -0.102431   -0.550770    2.508541
O      -0.247392    0.782695    2.993213
H       0.903355    2.014748   -0.067402
H      -0.574260    1.877670   -1.033057
H      -0.663664    1.944464    0.741923
H      -1.006951   -0.384648   -0.067108
H       0.216571   -0.694105   -2.115205
H       1.651298    0.079719   -1.471237
H       0.625460   -2.733469   -0.863516
H       2.285894   -2.235964   -1.182687
H       1.577866   -2.602113    1.452335
H       2.634692   -0.473917    2.271111
H       2.718722    0.159780    0.570896
H      -1.090627   -1.008451    2.334189
H       0.423203   -1.177332    3.247288
H      -0.828435    0.758727    3.759486
