15

C      -0.026517    1.503431   -0.132585
C       1.362926    2.056014    0.102184
C       2.449436    1.324703    0.354708
C       2.489913   -0.183716    0.451888
C       1.123922   -0.729141    0.221248
C       0.022750    0.022466   -0.035300
O      -1.026690   -0.773009   -0.190177
N      -0.517613   -2.127005   -0.011844
N       0.712384   -2.041057    0.219795
H      -0.737459    1.915797    0.597336
H      -0.407626    1.814240   -1.115654
H       1.449720    3.137736    0.054789
H       3.398443    1.831174    0.507404
H       3.206653   -0.587772   -0.276830
H       2.877115   -0.486333    1.434998
