15

N      -0.061600   -1.108107   -0.454282
C      -0.060363    0.025678   -0.233836
C      -0.048711    1.460210    0.065418
C       1.346943    2.008549    0.195134
C       2.415457    1.690289    1.255564
C       2.983474    3.139008    1.040953
C       1.883062    3.366170   -0.004386
O       2.041152    2.348954   -1.007019
H      -0.573240    1.996088   -0.732248
H      -0.605272    1.622052    0.996051
H       2.003540    1.546987    2.257270
H       3.071629    0.854661    1.005773
H       2.875710    3.768032    1.927303
H       4.002247    3.216640    0.656116
H       1.397929    4.286000   -0.311362
