20

C      -0.025353    1.554248   -0.003032
C      -0.045077    0.024564   -0.096664
C      -1.432944   -0.558045    0.032932
C      -2.216299   -0.465886    1.373194
N      -2.665496   -1.897126    1.258649
C      -3.120817   -2.093999   -0.151252
C      -3.457460   -0.874547   -0.996355
O      -2.256327   -0.100902   -1.041196
C      -1.678673   -2.087504    0.133037
H       0.992647    1.938481   -0.114224
H      -0.648299    1.995405   -0.784915
H      -0.407187    1.898103    0.964488
H       0.371332   -0.296848   -1.059163
H       0.587202   -0.412475    0.685237
H      -1.567415   -0.381102    2.248702
H      -3.016131    0.279064    1.436533
H      -3.670114   -3.017428   -0.294155
H      -3.734736   -1.161416   -2.017174
H      -4.283592   -0.286817   -0.572063
H      -0.981228   -2.914228    0.073204
