16

C      -0.063414    1.562759    0.035068
C       0.005615    0.034563   -0.012058
O      -1.301600   -0.543245    0.038596
C       0.814638   -0.486875   -1.195819
C       1.813546   -1.289465   -0.822987
C       1.860920   -1.392930    0.666775
O       2.099453   -0.117848    1.319780
C       0.757593   -0.572169    1.179342
H       0.938156    1.986363    0.139470
H      -0.511335    1.958691   -0.884134
H      -0.678890    1.882665    0.880946
H      -1.806253   -0.204508   -0.708488
H       0.593975   -0.180253   -2.213766
H       2.523809   -1.775955   -1.480194
H       2.270268   -2.255596    1.182371
H       0.206041   -0.780878    2.091980
