23

C       0.081390    1.565784    0.111580
C       0.036176    0.037897    0.075460
O       0.678159   -0.521915    1.219954
C      -1.393699   -0.498646   -0.090792
C      -1.444731   -2.025147   -0.209351
C      -2.873019   -2.620010   -0.165781
C      -3.755162   -2.160722   -1.345098
C      -2.810913   -4.080611   -0.114085
C      -2.747816   -5.281225   -0.092611
H       1.109081    1.911868    0.250709
H      -0.309859    1.997857   -0.815185
H      -0.525394    1.952566    0.940470
H       0.642364   -0.315698   -0.768610
H       0.220230   -0.190026    2.000651
H      -1.990652   -0.171312    0.775096
H      -1.844126   -0.022910   -0.970087
H      -0.960110   -2.342162   -1.141723
H      -0.857211   -2.456494    0.606008
H      -3.348255   -2.273479    0.763934
H      -4.744581   -2.621852   -1.290220
H      -3.884102   -1.074987   -1.336967
H      -3.300966   -2.448245   -2.298596
H      -2.695966   -6.341210   -0.062582
