16

N      -0.011439    1.260832    0.534333
C       0.037961    0.146542   -0.064998
N      -1.074667   -0.289442   -0.785351
C      -1.390194   -1.590672   -1.179063
N      -2.572244   -2.023286   -1.051542
O      -0.387162   -2.310452   -1.751278
C       0.728090   -1.583177   -2.264709
C       1.710070   -1.249608   -1.153593
O       1.088426   -0.716186    0.018860
H       0.878355    1.445275    0.992286
H      -1.893849    0.270423   -0.594482
H      -2.663998   -2.929192   -1.508080
H       1.212074   -2.237892   -2.994346
H       0.383462   -0.682486   -2.781472
H       2.214873   -2.154689   -0.807530
H       2.467364   -0.546828   -1.527077
