18

O       0.727382   -0.823155   -1.093873
C       0.141248   -0.102257   -0.025893
C      -1.355204   -0.345939    0.037664
C      -2.270301    0.457501    0.995359
C      -3.056724    0.886928   -0.252558
C      -2.145507    1.563958   -1.203174
N      -2.127643    0.090953   -1.194755
C      -4.476796    0.895292   -0.363450
C      -5.678762    0.908827   -0.415302
H       0.185127   -0.661391   -1.874876
H       0.610732   -0.463239    0.896535
H       0.365008    0.974791   -0.097178
H      -1.522345   -1.421351    0.137414
H      -2.840800   -0.175195    1.674959
H      -1.821518    1.278236    1.562871
H      -2.586450    1.963243   -2.110467
H      -1.301617    2.132184   -0.818554
H      -6.739047    0.918147   -0.473622
