21

C      -0.030955    1.519622   -0.021682
C       0.046395    0.008329    0.002495
C      -1.194376   -0.684997   -0.535715
O      -1.210983   -2.085814   -0.269170
C      -1.148731   -2.346945    1.132762
C       0.236604   -2.017832    1.693576
C       0.763629   -0.687548    1.163433
C       1.372360   -0.668396   -0.229059
O       1.500769   -1.835501   -0.981450
H       0.900172    1.967763    0.338102
H      -0.205504    1.894247   -1.037815
H      -0.844003    1.888741    0.615630
H      -2.097367   -0.221328   -0.104641
H      -1.254128   -0.587526   -1.625622
H      -1.925246   -1.754537    1.641348
H      -1.391587   -3.405732    1.257178
H       0.184062   -1.996454    2.786523
H       0.934993   -2.819098    1.421830
H       1.224145   -0.036712    1.901111
H       2.238597   -0.032190   -0.384668
H       0.643541   -2.286389   -0.970297
