18

C       0.101166    1.535344    0.081947
C       0.063021    0.081143    0.075428
C       0.045830   -1.123208    0.071649
C       0.045856   -2.557913    0.015642
C      -0.459731   -3.345352    1.211438
N      -1.220133   -3.341707   -0.008350
C      -2.477164   -2.602476   -0.026823
C       1.119198   -3.222137   -0.803850
O       2.060579   -2.663986   -1.298404
H       1.119791    1.896586   -0.095879
H      -0.540998    1.954907   -0.700198
H      -0.233314    1.940507    1.043224
H       0.020588   -4.283336    1.481512
H      -0.799302   -2.736997    2.048239
H      -2.461412   -1.691304    0.586577
H      -2.712512   -2.323110   -1.057364
H      -3.265108   -3.266541    0.340558
H       0.947433   -4.316278   -0.906250
