19

N      -0.135314   -1.140398    0.214559
C      -0.057194    0.014293    0.198527
C       0.036024    1.447337    0.174279
C       0.792776    2.169854    1.281061
C       1.370447    2.130283   -0.100906
C       2.607058    1.318767   -0.416780
N       3.800351    2.141009   -0.252539
C       4.453295    2.097711    1.052639
C       5.064407    1.424691   -0.126620
H      -0.850167    1.934525   -0.217702
H       0.359059    3.091986    1.649620
H       1.248978    1.546027    2.041274
H       1.290373    3.044132   -0.681247
H       2.629962    0.407534    0.206549
H       2.570355    0.988333   -1.461861
H       4.846663    3.041841    1.417818
H       4.023780    1.455588    1.820082
H       5.038907    0.336184   -0.144293
H       5.911528    1.868771   -0.641213
