19

C      -0.316816    1.330364    0.070424
N      -0.294773   -0.108611   -0.007282
C       0.146515   -0.933676   -1.045039
N       0.323335   -0.822604   -2.292578
C       0.404754   -2.074412   -0.062720
O       1.766343   -2.060457    0.419851
C       1.435561   -1.172008    1.508652
C      -0.047382   -1.088652    1.059907
C      -1.153617   -1.281193    2.068281
H       0.644384    1.756091    0.394850
H      -0.550306    1.735051   -0.918653
H      -1.096619    1.666891    0.761179
H       0.132051    0.124619   -2.625713
H       0.018698   -3.075205   -0.257075
H       1.587357   -1.662637    2.478297
H       2.006893   -0.236511    1.481458
H      -1.234963   -0.413649    2.734140
H      -2.116520   -1.413523    1.566688
H      -0.960638   -2.158355    2.692857
