20

C       0.071010    1.379672   -0.197188
N      -0.027244   -0.053384    0.058938
C       0.632721   -0.415110    1.308937
C      -1.398340   -0.549392   -0.020766
C      -1.988216   -0.556124   -1.463105
O      -2.167710   -1.981243   -1.439813
C      -1.506020   -2.096804   -0.169954
C      -2.297074    0.016980    0.989153
C      -3.001945    0.505001    1.833471
H       1.127187    1.660364   -0.249196
H      -0.388661    1.622007   -1.159971
H      -0.413576    1.994652    0.580082
H       0.187857    0.072925    2.192729
H       0.587803   -1.498009    1.458235
H       1.686741   -0.127521    1.251145
H      -2.932470   -0.020351   -1.599882
H      -1.259170   -0.244750   -2.220612
H      -0.527274   -2.583235   -0.257812
H      -2.121718   -2.610832    0.574404
H      -3.636212    0.927502    2.573466
