16

C      -0.049346    1.568060    0.016810
C       0.046776    0.049260    0.079991
O       1.085932   -0.482269   -0.817805
C       1.668981   -1.218732    0.262042
C       2.217140   -0.293199    1.297534
C       0.737596   -0.624449    1.285098
C      -1.238977   -0.576561   -0.219830
C      -2.308305   -1.075984   -0.446688
H       0.905767    2.027876    0.278874
H      -0.322299    1.880553   -0.994932
H      -0.819305    1.924736    0.706964
H       1.995613   -2.232822    0.066592
H       2.761150   -0.766041    2.109922
H       2.587219    0.684760    1.006116
H       0.215214   -1.075766    2.116504
H      -3.248395   -1.522759   -0.658337
