18

N      -0.212401    1.108784   -0.630936
C      -0.590008   -0.205868   -0.637975
O      -0.729834   -0.843869   -1.656346
C      -0.871920   -0.763862    0.773100
C      -0.988582   -2.211072    0.815495
C      -1.084739   -3.409082    0.864203
C      -1.201418   -4.860893    0.859663
C      -1.300901   -5.427218   -0.561553
O      -1.407065   -6.836317   -0.437811
H       0.034583    1.529761   -1.511548
H       0.034451    1.592124    0.214798
H      -0.085788   -0.419955    1.458844
H      -1.800462   -0.292414    1.124958
H      -0.337606   -5.320047    1.355919
H      -2.087344   -5.179460    1.422631
H      -2.176492   -4.993651   -1.066026
H      -0.409830   -5.132470   -1.134382
H      -1.469600   -7.210744   -1.321030
