18

O       0.544628    0.714548    0.774537
C       0.233540   -0.356626   -0.059003
C      -1.241553   -0.900135   -0.196283
C      -0.995481   -1.097157   -1.732214
C       0.165125   -0.111657   -1.565794
O       0.626838    0.770075   -2.235638
C      -1.619751   -2.093715    0.632767
C      -2.309315   -1.921708    1.935202
N      -3.026922   -2.498510    0.783328
H       0.634505    1.494790    0.212708
H       0.892272   -1.208364    0.167194
H      -1.940053   -0.072735   -0.030213
H      -0.652701   -2.110281   -1.966090
H      -1.780843   -0.811636   -2.433255
H      -0.944276   -2.942126    0.521187
H      -2.119538   -2.614237    2.749926
H      -2.549035   -0.909026    2.249274
H      -3.634133   -1.794192    0.369459
