13

N       0.030590    1.364546    0.154625
C      -0.049627    0.005149    0.057550
C      -1.200582   -0.727136    0.031326
C      -1.140500   -2.155294   -0.012160
O      -2.074598   -2.938335   -0.042329
C       0.281831   -2.644164   -0.018861
O       0.433297   -3.970049   -0.049671
N       1.352161   -1.925464    0.000570
O       1.179317   -0.535078    0.032518
H       0.913068    1.777333   -0.105729
H      -0.788388    1.888333   -0.107070
H      -2.164115   -0.234589    0.051413
H       1.383943   -4.158466   -0.049897
