19

C       0.102865    1.435426    0.083489
C      -0.196854   -0.069705    0.033851
C      -1.636023   -0.316362   -0.148718
N      -2.767715   -0.512515   -0.272533
N       0.523768   -0.670433   -1.089252
C       1.898356   -1.117163   -0.976531
C       2.218193   -1.784745    0.374972
C       1.042914   -2.784355    0.133828
C       0.762673   -2.091569   -1.213419
H       1.173710    1.583800    0.247220
H      -0.174604    1.905961   -0.861962
H      -0.446166    1.913831    0.898038
H       0.070385   -0.509725    1.006465
H       2.622793   -0.704192   -1.669893
H       3.189142   -2.283494    0.359307
H       2.176844   -1.147807    1.264231
H       1.395811   -3.808771    0.002894
H       0.221345   -2.793416    0.856103
H       0.437628   -2.579172   -2.125453
