23

C      -0.045188    1.560686   -0.032822
C       0.046815    0.033296   -0.015325
C       0.660619   -0.529224   -1.307681
C       0.701013   -2.064537   -1.307068
C       1.432464   -2.608491   -0.072096
C       0.830769   -2.050494    1.223428
C       0.811045   -0.500227    1.231937
C       2.167006    0.041879    1.328797
C       3.287535    0.472548    1.411496
H       0.949114    2.012125   -0.106430
H      -0.638393    1.904492   -0.886566
H      -0.517741    1.942086    0.879130
H      -0.972776   -0.369711    0.073667
H       0.089168   -0.166048   -2.170074
H       1.679155   -0.133833   -1.417479
H      -0.327421   -2.452524   -1.319129
H       1.179914   -2.429402   -2.222721
H       1.394476   -3.703411   -0.057655
H       2.492467   -2.330093   -0.123031
H      -0.204746   -2.399644    1.329033
H       1.382861   -2.415849    2.095073
H       0.261545   -0.170451    2.124275
H       4.273370    0.858585    1.492651
