17

C      -0.331680    1.406967   -0.165253
O      -0.279186   -0.021930   -0.275078
C       0.759098   -0.507184   -0.985452
O       1.586983    0.174850   -1.530634
C       0.748515   -2.024713   -0.934980
O       1.440063   -2.648772   -2.035306
C       2.285423   -3.362176   -1.122605
C       3.128028   -2.421075   -0.328103
C       1.690483   -2.680753    0.086373
H       0.570348    1.789194    0.319360
H      -0.419372    1.864349   -1.153780
H      -1.212614    1.626728    0.437629
H      -0.279766   -2.391569   -0.860306
H       2.508540   -4.397725   -1.347979
H       3.860429   -2.889555    0.322157
H       3.415877   -1.467721   -0.758433
H       1.396627   -3.063247    1.053357
