22

C       0.174004    1.285007   -0.420104
C      -0.202842   -0.195781   -0.294370
C      -1.635750   -0.470183    0.203161
O      -1.847352    0.146754    1.477054
C      -2.731357   -0.035459   -0.828732
C      -3.173459   -1.302946   -1.529942
N      -2.047394   -2.093321   -2.079684
C      -2.657594   -2.474869   -0.783982
C      -1.874072   -1.993208    0.417518
H       1.195796    1.386959   -0.797696
H      -0.481783    1.826800   -1.110033
H       0.145350    1.799136    0.548018
H      -0.085374   -0.697876   -1.259188
H       0.489029   -0.676756    0.407695
H      -1.670020    1.088185    1.383924
H      -3.575966    0.385504   -0.272960
H      -2.373100    0.725717   -1.528536
H      -4.125767   -1.325991   -2.050426
H      -2.400547   -2.710890   -2.806492
H      -3.209951   -3.407340   -0.726922
H      -0.934403   -2.535591    0.559169
H      -2.475120   -2.118240    1.323821
