17

C      -0.077637    1.596664   -0.116685
C       0.017126    0.062516   -0.072726
C       0.853022   -0.573122   -1.155028
C       1.839139   -1.337796   -0.685203
C       1.863502   -1.375344    0.816636
C       3.167954   -0.944134    1.475228
O       4.190510   -0.740724    0.876819
C       0.701973   -0.432129    1.213007
O       0.414730   -0.121209    2.338632
H       0.918133    2.049080   -0.150058
H      -0.629844    1.925160   -1.001818
H      -0.594187    1.963112    0.774147
H      -1.006115   -0.342413   -0.072592
H       0.652401   -0.401968   -2.206864
H       2.565597   -1.869319   -1.285963
H       1.633707   -2.366413    1.240859
H       3.092955   -0.827571    2.576963
