18

O      -0.154165    1.378132    0.088801
N       0.043168   -0.021422   -0.002246
C      -1.062511   -0.630391   -0.078321
C      -2.549216   -0.328332    0.001815
C      -2.999852   -0.886198   -1.374198
C      -2.583449   -2.346623   -1.077728
C      -3.518543   -2.695706    0.109921
C      -2.658187   -1.673040    0.863407
C      -1.413380   -2.082597   -0.020340
H       0.751232    1.700025    0.150128
H      -2.930549    0.629154    0.344346
H      -4.074031   -0.792208   -1.558043
H      -2.457954   -0.423789   -2.203179
H      -2.445717   -3.023482   -1.919788
H      -4.592329   -2.522488   -0.013612
H      -3.349035   -3.704337    0.497405
H      -2.602597   -1.575405    1.945657
H      -0.721040   -2.884331    0.221923
