19

C      -0.237903    1.576593   -0.017993
C      -0.030533    0.060923   -0.006023
O      -1.276749   -0.625610    0.055846
C       0.756350   -0.424000   -1.239343
N       2.136853    0.021279   -1.165520
C       2.873882    0.052216    0.002157
O       4.086299    0.175517    0.008658
N       2.125378    0.013664    1.160104
C       0.736041   -0.402806    1.240302
H       0.716453    2.106871   -0.012320
H      -0.785346    1.881496   -0.918176
H      -0.817163    1.883019    0.857688
H      -1.872525   -0.220538   -0.582854
H       0.665230   -1.519364   -1.282358
H       0.302152   -0.021002   -2.152371
H       2.716114   -0.059076   -1.985947
H       2.694977   -0.049154    1.988350
H       0.279495    0.033109    2.134369
H       0.626255   -1.494560    1.315152
