21

C      -0.532773    1.541209    0.084028
C      -0.071071    0.119509   -0.057402
C      -0.174448   -0.585151   -1.188689
C       0.338927   -2.002812   -1.269629
C      -0.046605   -2.780004   -0.002431
O       0.970797   -3.702253    0.460674
C       0.997041   -3.086078    1.765037
C       0.021303   -1.977337    1.316123
C       0.567234   -0.550800    1.144764
H      -1.285994    1.638060    0.877042
H       0.298014    2.201362    0.366193
H      -0.965199    1.920897   -0.845830
H      -0.618266   -0.140845   -2.075531
H      -0.027225   -2.508039   -2.167879
H       1.436183   -2.012686   -1.330375
H      -1.000952   -3.301336   -0.151263
H       0.614033   -3.759083    2.543318
H       2.006977   -2.759061    2.045121
H      -0.921578   -1.951432    1.866346
H       1.656307   -0.596674    0.996771
H       0.407606    0.036667    2.055010
