18

C       0.173199    1.469166   -0.183912
C      -0.136111   -0.005623    0.095920
C       0.666576   -0.569604    1.262599
C       0.532042    0.151147    2.505922
N       0.421671    0.737525    3.497764
C       0.915889   -2.068627    1.506931
C       1.158935   -2.771396    0.177574
O       2.175759   -1.793513   -0.188317
C       2.053922   -1.180100    1.087082
H       1.228834    1.605490   -0.438877
H      -0.425686    1.831764   -1.024099
H      -0.048534    2.096306    0.684674
H      -1.204211   -0.135663    0.304231
H       0.096407   -0.596068   -0.793239
H       0.691431   -2.536887    2.454781
H       1.614787   -3.758830    0.301268
H       0.341458   -2.824639   -0.548080
H       2.947943   -0.820011    1.581626
