22

C       0.559961    1.197927    0.396570
C       0.159029   -0.258391    0.681380
C       0.401309   -0.619111    2.154945
C      -1.296429   -0.462350    0.290509
C      -1.686407   -0.770454   -1.115265
N      -1.902257   -1.754627   -0.060559
C      -1.113851   -2.974474   -0.083187
C      -1.328697   -3.755988    1.202877
O      -0.496858   -4.455506    1.720347
H       1.607583    1.372381    0.661297
H       0.428700    1.449167   -0.660357
H      -0.050353    1.893818    0.984069
H       0.789321   -0.903189    0.056532
H       0.192948   -1.673114    2.358802
H       1.441681   -0.426407    2.435916
H      -0.237077   -0.016755    2.811892
H      -1.979952    0.158920    0.871313
H      -2.582097   -0.346632   -1.562678
H      -0.872502   -0.950329   -1.817907
H      -1.500051   -3.605121   -0.898311
H      -0.034508   -2.856142   -0.253035
H      -2.348722   -3.633412    1.630092
