21

C      -0.028329    1.513303    0.193260
C       0.007367    0.031057    0.034196
C      -0.010457   -0.781454   -1.032378
C      -0.071945   -0.565143   -2.503552
O      -0.122620    0.817790   -2.816104
C       0.052653   -2.190544   -0.408480
C      -0.975194   -2.028408    0.760957
C       0.079969   -0.964753    1.213867
C       1.155528   -1.968807    0.680042
H       0.860328    1.872999    0.729593
H      -0.077800    2.012332   -0.773882
H      -0.894146    1.823802    0.793864
H       0.806076   -1.043958   -2.975628
H      -0.954625   -1.093494   -2.909445
H      -0.160632    0.904751   -3.772659
H       0.051474   -3.054355   -1.075549
H      -1.975763   -1.669874    0.506737
H      -1.028106   -2.901833    1.419701
H       0.107011   -0.557990    2.225637
H       1.306911   -2.836517    1.331024
H       2.112357   -1.555489    0.351472
