22

C      -0.085647    1.439790    0.089147
N      -0.091071    0.009434   -0.144645
C       0.859861   -0.619051   -0.896540
O       1.762353   -0.018874   -1.456744
C       0.725305   -2.137579   -0.961037
C       1.177973   -2.703039   -2.309562
C       1.413869   -4.217817   -2.274639
C       1.831442   -4.765758   -3.639319
O       2.359536   -4.572484   -1.264943
H       0.059902    1.675179    1.149916
H       0.743505    1.856149   -0.483949
H      -1.021167    1.901514   -0.245699
H      -0.798564   -0.551181    0.299610
H       1.368530   -2.559927   -0.179278
H      -0.299451   -2.450867   -0.727251
H       0.440822   -2.467728   -3.087094
H       2.104395   -2.192378   -2.599322
H       0.489698   -4.719472   -1.958515
H       2.749448   -4.276198   -3.987729
H       2.018534   -5.841075   -3.576510
H       1.055981   -4.589431   -4.391828
H       3.205453   -4.180967   -1.512143
