16

C       0.124342    1.429213    0.003840
C      -0.035646   -0.071859    0.132573
O       0.903847   -0.808281    0.336343
N      -1.320976   -0.627011    0.009162
C      -1.416296   -2.084263    0.084442
C      -0.988373   -2.631133    1.440661
O      -0.698729   -3.781259    1.617973
C      -2.482666    0.112941   -0.182258
O      -3.581723   -0.372229   -0.288819
H       1.186302    1.648112    0.109202
H      -0.225002    1.793193   -0.966744
H      -0.428972    1.961526    0.783297
H      -2.467926   -2.335249   -0.080085
H      -0.808369   -2.554162   -0.691214
H      -1.009362   -1.887570    2.269030
H      -2.303274    1.196803   -0.225880
