15

C       0.045507    1.414770    0.030868
C       0.004655   -0.092025   -0.036619
O       1.005721   -0.772359   -0.130172
C      -1.349840   -0.791131    0.043368
O      -1.187356   -2.176559   -0.143815
C      -2.036558   -0.559103    1.407320
O      -3.192248   -1.354474    1.504578
H       1.047985    1.769293   -0.211244
H      -0.688148    1.858572   -0.649374
H      -0.214060    1.746414    1.043329
H      -2.007636   -0.392687   -0.744158
H      -0.225353   -2.318782   -0.150256
H      -1.314827   -0.789284    2.209642
H      -2.347860    0.485057    1.515806
H      -2.919808   -2.237660    1.222137
