17

C       0.035033    1.513509    0.026582
C       0.046964   -0.014556    0.010641
O       0.765319   -0.566196    1.108047
C      -1.360951   -0.569017   -0.051250
C      -2.167627   -1.072217    1.159770
C      -1.934486   -1.961078   -0.004536
O      -2.903351   -1.645232   -1.048959
C      -2.342003   -0.383608   -1.185638
O      -2.595721    0.440775   -2.003902
H       1.057908    1.899596    0.025449
H      -0.495884    1.900654   -0.847571
H      -0.480892    1.885106    0.920830
H       0.587090   -0.356043   -0.881025
H       0.575415   -0.026982    1.883447
H      -1.543948   -1.268127    2.026488
H      -3.166711   -0.700299    1.362982
H      -1.466986   -2.934188   -0.037834
