19

C      -0.002568   -1.139254   -0.043218
C      -0.001209    0.063554   -0.001778
C      -0.014194    1.496003    0.023312
C      -0.636166    2.442054    1.109939
C      -0.050629    3.395129    0.024601
C       1.209467    2.478216    0.000261
C      -0.660923    2.445664   -1.021388
C      -0.659596    2.417736   -2.506561
C      -1.972095    2.392019   -1.717429
H       0.000090   -2.200644   -0.073383
H      -1.723203    2.410305    1.206345
H      -0.136134    2.440849    2.081922
H      -0.073419    4.484221    0.022190
H       1.833433    2.479439    0.897730
H       1.804844    2.479431   -0.914875
H      -0.414138    3.325289   -3.049656
H      -0.360823    1.502230   -3.008033
H      -2.528530    1.459758   -1.704715
H      -2.592752    3.282604   -1.739776
