19

C      -0.433536    1.393568   -0.125427
C      -0.052281   -0.075916   -0.054120
N       1.270378   -0.420460   -0.711144
C       1.843486   -0.591528    0.539466
N       2.937233   -0.387622    1.156716
C       2.519287   -0.445764    2.590353
C       1.002506   -0.025227    2.620062
O       0.858309    1.380822    2.704433
C       0.549072   -0.671815    1.282009
H       0.375268    2.042753    0.215104
H      -0.683642    1.666698   -1.156655
H      -1.307638    1.592910    0.500348
H      -0.859248   -0.693619   -0.458403
H       1.697163    0.177329   -1.410387
H       2.665109   -1.451205    3.007562
H       3.119883    0.248614    3.186717
H       0.466110   -0.430098    3.482342
H       1.552826    1.778071    2.167127
H       0.182758   -1.686443    1.458843
