21

O      -0.195724    1.199544   -0.633880
C      -0.083340   -0.190877   -0.370800
C      -1.469183   -0.706641   -0.002029
C      -1.474186   -2.192126    0.304462
C      -2.836112   -2.910938    0.425681
C      -2.333147   -3.780352   -0.743491
C      -3.085416   -3.729281   -2.061866
O      -2.273674   -4.210916   -3.113664
O      -1.106873   -3.007679   -0.844267
H       0.661472    1.518957   -0.929962
H       0.284825   -0.741338   -1.248863
H       0.617767   -0.385560    0.457912
H      -1.834910   -0.159446    0.876282
H      -2.158592   -0.495957   -0.827493
H      -0.793978   -2.407771    1.140778
H      -3.020629   -3.431041    1.365896
H      -3.698568   -2.284335    0.183690
H      -2.105430   -4.822330   -0.484610
H      -3.975638   -4.367520   -2.018453
H      -3.419808   -2.695284   -2.249896
H      -1.445137   -3.719589   -3.050320
