17

C      -0.030785    1.587501    0.145130
C      -0.000350    0.075355    0.075551
C      -1.257164   -0.569732   -0.503019
O      -1.494722   -0.200825   -1.849908
C       1.249843   -0.690208   -0.182200
O       2.404506    0.005526    0.360586
C       1.906124   -0.163377    1.651856
O       2.445760    0.113559    2.671730
C       0.624492   -0.802397    1.189178
H       0.921557    1.998166    0.483199
H      -0.228712    2.003974   -0.848495
H      -0.817227    1.930163    0.826033
H      -1.149739   -1.660055   -0.504446
H      -2.116523   -0.328602    0.140575
H      -1.847667    0.693593   -1.863027
H       1.436224   -1.428133   -0.949916
H       0.089656   -1.601737    1.682463
