14

O       0.078857    1.336656    0.095294
C       0.064880   -0.004373    0.062908
N       0.096545   -0.582865   -1.138579
C       0.082969   -1.912846   -1.180446
C       0.037762   -2.722431   -0.041374
C       0.024911   -4.190582   -0.155076
O       0.050707   -4.805309   -1.197103
C       0.005288   -2.085482    1.207096
C       0.018546   -0.707085    1.275187
H       0.111413    1.628771   -0.827538
H       0.108878   -2.378657   -2.161193
H      -0.011988   -4.722399    0.823358
H      -0.030183   -2.680258    2.115816
H      -0.005144   -0.165965    2.212359
