17

C       0.037918    1.201378   -0.678819
O      -0.183536   -0.190456   -0.488024
C      -1.399290   -0.566268    0.140205
C      -1.518557   -0.075735    1.590268
C      -2.549990   -0.081316   -0.660046
N      -3.421161    0.326918   -1.300333
C      -1.470090   -2.131978    0.129453
N      -0.608579   -2.715121   -0.729497
O      -2.264333   -2.715114    0.834990
H       0.966229    1.284428   -1.246640
H      -0.777137    1.662832   -1.249411
H       0.156313    1.728008    0.275220
H      -1.665758    1.004787    1.637023
H      -2.366388   -0.575469    2.059411
H      -0.605225   -0.342512    2.128824
H       0.063985   -2.156708   -1.226231
H      -0.587839   -3.719779   -0.783104
