13

C      -0.484904   -0.751680   -1.010101
C      -0.128723    0.080155   -0.219994
C       0.310329    1.092239    0.734296
C       1.556674    1.814188    0.311949
C       2.319842    1.672437   -0.797256
O       3.353832    2.566372   -0.717933
C       3.150370    3.205392    0.453677
N       2.110135    2.812209    1.111285
H      -0.809404   -1.489733   -1.701202
H      -0.490237    1.826717    0.893785
H       0.481342    0.630290    1.715699
H       2.281797    1.043625   -1.668307
H       3.863763    3.968756    0.721986
