16

C       0.584800    1.442781    0.228857
C       0.227751   -0.018792    0.209702
O       1.288901   -0.977289    0.221618
C       0.428691   -0.921601    1.373486
C       1.064670   -0.434320    2.678166
C       2.574790   -0.280237    2.534367
O       3.151594    0.765912    2.668597
C      -0.467609   -2.057413    1.503451
N      -1.190005   -2.949432    1.639668
H       1.373411    1.668255    0.948522
H       0.928744    1.747981   -0.764355
H      -0.301597    2.037689    0.472440
H      -0.583398   -0.293975   -0.465304
H       0.639127    0.521021    2.994234
H       0.877996   -1.170205    3.468043
H       3.117841   -1.220759    2.309558
