19

C      -0.069813    1.612671    0.137252
C      -0.075525    0.102304    0.179411
C       1.073760   -0.706844   -0.309376
C       0.780993   -0.702984    1.183200
C       1.722640   -0.001375    2.089847
O       2.497181    0.859238    1.716207
C       1.677146   -0.376324    3.573323
C       1.489505    0.863713    4.437557
O       0.751748    0.913502    5.385215
H       0.925635    2.011153    0.339367
H      -0.384135    1.957252   -0.853915
H      -0.765967    2.032327    0.871235
H      -1.056042   -0.345159    0.037760
H       0.890742   -1.630167   -0.847240
H       1.972163   -0.169092   -0.593845
H       0.298389   -1.578300    1.602460
H       0.916035   -1.116774    3.824179
H       2.665672   -0.785915    3.823308
H       2.101291    1.730482    4.113799
