15

O       0.069298   -0.037110    0.001161
C       0.031855    1.177783    0.008534
N      -1.091346    2.013695    0.029029
C      -0.743288    3.367134    0.031045
C       0.610206    3.406822    0.011833
C       1.778538    4.257834   -0.001787
C       2.879176    3.482468   -0.022445
C       2.517827    2.009270   -0.024229
N       1.070227    2.087266   -0.001323
H      -2.022750    1.637648    0.040042
H      -1.478676    4.151965    0.045700
H       1.752318    5.338110    0.003971
H       3.904290    3.825818   -0.036376
H       2.882900    1.481713   -0.916151
H       2.910416    1.472882    0.850569
