20

C       0.046938    1.558901   -0.093841
C       0.045694    0.104119   -0.031985
C       0.048953   -1.100293    0.014855
C       0.030742   -2.546782    0.093597
C       0.212233   -3.240147    1.482928
C      -0.841240   -4.298465    1.053755
C      -1.833236   -4.812533    2.084517
C      -1.331366   -3.303279   -0.034093
H       0.762583    1.927564   -0.837425
H      -0.940722    1.948173   -0.366107
H       0.319080    1.999748    0.871936
H       0.748107   -2.970308   -0.618707
H       1.216181   -3.580144    1.747786
H      -0.169336   -2.600288    2.284176
H      -0.334127   -5.143468    0.572922
H      -2.351758   -3.982302    2.577534
H      -2.593315   -5.452538    1.622177
H      -1.332209   -5.400920    2.861599
H      -2.152110   -2.681374    0.335537
H      -1.598397   -3.695256   -1.018323
