20

C       0.022847    1.446381   -0.076264
C       0.085057    0.002630    0.081206
C       0.129117   -1.194015    0.219243
C       0.147138   -2.633139    0.438470
O      -0.508066   -3.177627    1.312522
N       0.952340   -3.310917   -0.429619
C       1.142308   -4.758029   -0.355334
C       1.475958   -5.297884   -1.746626
C       2.203476   -5.131613    0.688898
H       1.013654    1.898201    0.042696
H      -0.349132    1.718093   -1.070137
H      -0.643554    1.896091    0.667157
H       1.508779   -2.776125   -1.077861
H       0.181479   -5.165055   -0.025667
H       2.423948   -4.884637   -2.113195
H       1.582307   -6.385795   -1.717646
H       0.691359   -5.047302   -2.466374
H       1.922549   -4.736125    1.667785
H       2.296759   -6.219503    0.770320
H       3.183442   -4.724779    0.414853
