14

N      -0.259562    1.384499   -0.274397
C       0.109624    0.111920    0.131306
O       1.180517   -0.165684    0.603132
N      -0.962296   -0.798885    0.007623
C      -0.823614   -2.193705    0.003036
O       0.187452   -2.785870   -0.231655
N      -2.063271   -2.806916    0.302965
C      -2.397179   -4.141385    0.091455
O      -1.747187   -4.955515   -0.500401
H       0.518013    2.027992   -0.287245
H      -0.880586    1.470124   -1.065232
H      -1.887266   -0.411585   -0.094349
H      -2.743352   -2.261305    0.811705
H      -3.388460   -4.356517    0.540809
