17

C      -0.182351    1.293694    0.542266
O      -0.317001   -0.133156    0.584255
C      -1.148387   -0.651219   -0.331494
O      -1.764816   -0.005101   -1.146346
C      -1.235713   -2.125418   -0.228077
C      -1.613343   -3.004826   -1.388669
C      -2.481178   -3.005318   -0.162279
C      -1.746708   -3.691386    0.985422
O      -0.563434   -2.867730    0.785068
H       0.530883    1.545265    1.326762
H       0.188896    1.617180   -0.433348
H      -1.144815    1.776712    0.729026
H      -2.025992   -2.474701   -2.239207
H      -0.969046   -3.850507   -1.611887
H      -3.518237   -2.700597   -0.170627
H      -2.185798   -3.494373    1.969020
H      -1.529693   -4.760184    0.878540
