16

O      -0.322978    0.122136    0.239149
C       0.001098    1.278409    0.177933
C       1.397887    1.763261   -0.177494
C       1.367296    2.750974   -1.311819
C       1.145765    2.431054   -2.804500
C       2.197572    3.542277   -3.099800
O       2.779721    3.875313   -4.089854
C       2.348638    3.872595   -1.633146
N       1.016744    4.131468   -1.049938
H      -0.723443    2.097307    0.386911
H       1.806159    2.266487    0.708327
H       2.020942    0.896855   -0.415318
H       1.534023    1.461037   -3.130725
H       0.126575    2.553121   -3.183240
H       3.221237    4.238834   -1.105316
H       0.359708    4.516340   -1.726371
