17

C      -0.115564    1.634562    0.045130
C       1.454892    1.647160    0.072654
C       2.264469    2.192883    1.275163
O       2.272019    1.110662    2.251120
C       1.386492    0.215064    1.766742
N       0.422417   -0.343109    2.374550
C      -0.504517   -0.747334    1.291678
C      -0.020378    0.065325    0.062618
N       1.440556    0.184281    0.346129
H      -0.577390    2.057149    0.940878
H      -0.577484    2.080186   -0.837551
H       1.910471    1.913542   -0.883335
H       3.301005    2.412401    1.007234
H       1.812766    3.076506    1.736982
H      -0.455564   -1.824726    1.084016
H      -1.531861   -0.514999    1.591204
H      -0.242997   -0.402204   -0.898106
