23

C      -0.057043    1.469886   -0.529041
C      -0.046869    0.046499    0.034615
C      -1.434292   -0.601709    0.047005
C      -1.417491   -2.034816    0.615902
C      -2.733306   -2.665109    0.634578
C      -3.833829   -3.155160    0.647393
C      -5.153265   -3.774411    0.643249
C      -5.307431   -4.823979   -0.462647
O      -6.622162   -5.345201   -0.360679
H       0.945830    1.908114   -0.525746
H      -0.423541    1.483966   -1.561467
H      -0.708631    2.124158    0.060648
H       0.639616   -0.576655   -0.554230
H       0.356815    0.059012    1.055942
H      -2.126071    0.008425    0.640304
H      -1.843529   -0.627363   -0.970258
H      -0.724012   -2.649632    0.025801
H      -1.005104   -2.014853    1.634044
H      -5.356047   -4.257486    1.607128
H      -5.934551   -3.016053    0.508921
H      -5.130680   -4.351951   -1.440703
H      -4.546708   -5.607801   -0.330368
H      -6.737627   -6.008903   -1.046466
