16

N      -0.034034   -1.158230   -0.336241
C      -0.049229   -0.031722   -0.079092
C      -0.037007    1.395262    0.241008
C       1.369533    1.999816    0.137672
C       1.964344    2.260697   -1.263864
C       1.178618    3.604013   -1.434571
O       2.355951    4.392761   -1.765233
C       2.807777    3.463979   -0.738270
C       1.491937    3.539379    0.098117
H      -0.730517    1.908560   -0.435094
H      -0.431777    1.526381    1.255504
H       2.047416    1.499238    0.835955
H       2.242276    1.556913   -2.047098
H       0.248321    3.818728   -1.958742
H       3.845657    3.499445   -0.410150
H       1.237292    4.283086    0.853086
