19

C       0.011234    1.560454    0.084402
C       0.023175    0.062802   -0.000461
C      -0.893809   -0.839801    0.749871
C       0.604873   -0.957898    1.025753
C       1.268247   -1.679704   -0.113077
O       2.097689   -2.545097   -0.191421
C       0.647293   -0.747713   -1.137698
C       0.138292   -1.074399   -2.515419
C       1.390551   -0.255880   -2.349987
H       1.001707    1.978984   -0.122224
H      -0.691529    1.991795   -0.638789
H      -0.298298    1.894916    1.079396
H      -1.448797   -0.389899    1.568397
H      -1.419664   -1.644948    0.244451
H       1.009314   -0.798884    2.017777
H       0.237775   -2.101793   -2.850038
H      -0.760830   -0.569662   -2.854219
H       1.341104    0.804202   -2.576139
H       2.346028   -0.726007   -2.557986
