20

O       0.133106    1.255234   -0.512703
C       0.032833    0.058442    0.240883
C      -1.378067   -0.492716    0.197492
C      -2.431824    0.325419    0.924870
C      -3.765302   -0.417645    1.032291
O      -3.575773   -1.719397    1.552399
C      -2.873031   -2.567879    0.662641
C      -1.611409   -1.955738    0.061676
N      -1.698652   -1.072970   -1.123504
H      -0.137896    1.021775   -1.408930
H       0.732883   -0.706010   -0.127518
H       0.317846    0.314138    1.267153
H      -2.068325    0.531664    1.938536
H      -2.563130    1.293889    0.428726
H      -4.436352    0.098500    1.724148
H      -4.279557   -0.464259    0.055139
H      -2.607003   -3.453687    1.246565
H      -3.542915   -2.898815   -0.151066
H      -0.754364   -2.625141    0.029257
H      -2.676170   -0.912352   -1.359957
