19

C       0.049691    1.569352   -0.351797
C      -0.014130    0.099500    0.094510
C      -1.412460   -0.429719    0.162106
C      -2.125010   -0.862180    1.248300
C      -1.811501   -0.982815    2.699983
N      -3.374026   -1.230334    0.733946
C      -3.327924   -0.998254   -0.600016
O      -4.403858   -1.266847   -1.362111
N      -2.184278   -0.520816   -0.997845
H       1.086610    1.908962   -0.441715
H      -0.439491    1.692173   -1.321810
H      -0.461621    2.219239    0.365898
H       0.564133   -0.510844   -0.611119
H       0.469756   -0.014120    1.070876
H      -2.474536   -0.366733    3.321323
H      -1.896394   -2.016752    3.059266
H      -0.787697   -0.654136    2.890736
H      -4.157995   -1.600915    1.243094
H      -4.154720   -1.032073   -2.264824
