12

O      -0.160513    1.152512    0.010129
N       1.099446    2.124262    0.002750
N       2.199667    1.595204   -0.010824
C       2.353087    0.235907   -0.019372
C       3.468604   -0.552134   -0.034045
C       3.010848   -1.925304   -0.036867
C       1.637162   -1.982157   -0.024696
C       1.178037   -0.624797   -0.012227
N      -0.041311   -0.164814    0.002145
H       4.497811   -0.223199   -0.042162
H       3.672817   -2.780949   -0.047723
H       1.009411   -2.860359   -0.023755
