19

C       0.005563    1.608096   -0.045342
C       0.007101    0.083952   -0.003786
C      -1.397602   -0.513627   -0.003160
C      -1.402278   -2.053318    0.068290
C      -2.749766   -2.605282    0.119892
C      -3.871715   -3.033921    0.162454
O       0.691262   -0.419928   -1.174604
C       1.990627   -0.748695   -1.061680
O       2.648822   -1.119679   -1.986531
H       1.027090    1.999241   -0.039901
H      -0.492179    1.963857   -0.952093
H      -0.521558    2.013216    0.823620
H       0.550994   -0.263285    0.886948
H      -1.946158   -0.106079    0.852405
H      -1.925707   -0.188426   -0.905746
H      -0.869979   -2.454820   -0.801226
H      -0.839951   -2.381633    0.953298
H      -4.856919   -3.428115    0.197532
H       2.371853   -0.647625   -0.025834
