19

C      -0.133182    1.299201    0.679522
C       0.124106   -0.083800    0.120526
C       0.591174   -0.338602   -1.282127
C       0.854136    0.758487   -2.291315
C       1.533756   -0.637712   -0.112117
C       2.753528    0.185322    0.147795
N       3.819521   -0.532473    0.624401
O       2.845631    1.387808   -0.049550
H       0.631575    2.011259    0.371733
H      -1.113046    1.663322    0.350822
H      -0.141398    1.272644    1.774674
H      -0.556368   -0.836897    0.512018
H       0.191278   -1.245326   -1.730867
H       1.366932    1.608847   -1.843747
H       1.482345    0.383350   -3.106513
H      -0.089177    1.100691   -2.731666
H       1.657862   -1.692210    0.117138
H       3.731257   -1.486093    0.927220
H       4.636300   -0.014293    0.904301
