15

O      -0.058398    1.472517   -0.098314
C      -0.022804    0.063184   -0.096085
C      -1.363647   -0.639951   -0.112959
C      -1.789431   -0.792625   -1.578164
C      -0.713896   -0.131986   -2.439463
C       0.300216   -0.706035   -1.414962
C      -0.796521   -1.753612   -0.972216
H       0.844176    1.799367   -0.027269
H       0.595518   -0.321622    0.727077
H      -2.080402   -0.722761    0.693529
H      -2.826197   -0.981747   -1.825227
H      -0.624158   -0.626130   -3.410588
H      -0.732319    0.955183   -2.561938
H       1.329302   -0.922591   -1.695980
H      -0.794627   -2.824053   -0.834817
