16

N      -0.022266   -1.134521   -0.055730
C       0.007501    0.019267   -0.024309
C      -0.017581    1.483258    0.034813
C      -0.805326    1.968860    1.261544
O      -0.889619    3.379949    1.258689
C       0.282227    4.059723    0.906326
C       1.599293    3.892782    1.623250
C       1.412310    3.342804    0.221975
O       1.325507    1.943108    0.104206
H      -0.512405    1.862041   -0.872899
H      -1.831806    1.595362    1.237272
H      -0.312808    1.589300    2.168096
H       0.024246    5.053867    0.558494
H       2.213849    4.774371    1.767271
H       1.676469    3.147919    2.406958
H       1.924392    3.801090   -0.619989
