20

C       0.008553    1.589335    0.138330
C      -0.094342    0.079015    0.328453
C      -1.413355   -0.494859   -0.149616
O      -2.286928    0.191449   -0.631872
C      -1.641789   -2.016261   -0.011733
C      -2.862760   -2.243493    0.892617
C      -1.868689   -2.601522   -1.414000
O      -0.467059   -2.570632    0.580527
H       0.974328    1.957101    0.496149
H      -0.096196    1.860409   -0.915546
H      -0.783450    2.108643    0.684379
H       0.708753   -0.457775   -0.192305
H       0.033569   -0.214129    1.378198
H      -3.734426   -1.720914    0.492688
H      -3.093424   -3.313249    0.955560
H      -2.663816   -1.875425    1.903377
H      -0.970268   -2.484885   -2.027130
H      -2.101284   -3.670486   -1.344944
H      -2.700328   -2.094063   -1.907668
H      -0.603069   -3.519373    0.668901
