19

N      -0.579966    1.029099    0.467951
C      -0.009313   -0.224682   -0.024192
C       0.498059   -1.113228    1.158790
C      -0.809248   -1.949879    1.077149
C      -1.817236   -1.650940    2.173613
O      -3.018956   -2.333041    1.842924
C      -1.126807   -1.284231   -0.290452
C       0.950639   -0.022901   -1.118571
N       1.702440    0.165867   -1.977755
H       0.163792    1.655830    0.765864
H      -1.073507    1.502361   -0.284996
H       1.390785   -1.684419    0.899625
H       0.679735   -0.561489    2.084711
H      -0.658409   -3.030443    1.024121
H      -1.414208   -1.994067    3.141369
H      -1.974769   -0.565066    2.240805
H      -3.696480   -2.073410    2.473677
H      -2.129698   -0.869178   -0.406271
H      -0.898946   -1.923781   -1.144429
