18

C       0.233584    1.942147    1.024030
O       1.029728    0.870331    0.541847
C       0.846768   -0.341668    1.235254
C      -0.495816   -0.920846    0.998085
N      -1.576585   -1.297977    0.841581
C       1.997374   -1.262772    0.840645
O       1.728965   -2.647041    0.670914
C       2.151565   -1.892336   -0.479281
C       1.206619   -1.755179   -1.643236
H       0.441386    2.147011    2.084420
H       0.498988    2.818401    0.430252
H      -0.837819    1.735015    0.905578
H       0.907989   -0.168243    2.323402
H       2.904498   -1.036260    1.401715
H       3.183251   -2.109481   -0.763876
H       0.183310   -1.551514   -1.328932
H       1.542830   -0.942733   -2.295484
H       1.205728   -2.679957   -2.229209
