20

C      -0.403480    1.556208    0.322960
C      -0.119772    0.061246    0.263024
C       0.259668   -0.527069   -1.103105
N       1.532005    0.045653   -1.511992
C       1.563172   -1.074804   -0.543976
C       2.139591   -2.362116   -0.941586
O       2.404094   -2.653345   -2.089516
C       1.243422   -0.510004    0.846491
C       2.260437    0.439969    1.464321
H       0.385575    2.125512   -0.173744
H      -1.351914    1.787676   -0.174092
H      -0.480696    1.901431    1.359204
H      -0.956342   -0.498753    0.690947
H      -0.389160   -1.015534   -1.821586
H       1.787199   -0.365733   -2.412076
H       2.302326   -3.082207   -0.110528
H       1.021201   -1.330151    1.537396
H       2.556856    1.212015    0.750812
H       1.853600    0.929261    2.355346
H       3.161530   -0.104242    1.767827
