15

C       0.000416    1.552204    0.105733
C      -0.022603    0.031517   -0.063857
N      -1.364111   -0.529226   -0.008754
C      -2.147803   -0.692229    1.114199
C      -3.337402   -1.202947    0.665062
N      -3.312421   -1.357658   -0.700954
C      -2.120561   -0.943244   -1.066739
H       1.028607    1.922164    0.047853
H      -0.587897    2.038711   -0.677360
H      -0.414091    1.845904    1.074197
H       0.406693   -0.250329   -1.029826
H       0.587012   -0.448943    0.708897
H      -1.785238   -0.441518    2.097766
H      -4.205487   -1.473491    1.247037
H      -1.737740   -0.921779   -2.077147
