11

C      -0.003389    1.514361    0.116145
C       0.022482    0.033429   -0.008674
C      -0.006123   -0.782460   -1.104033
O       0.037524   -2.062469   -0.700684
N       0.095583   -2.020297    0.711505
N       0.085579   -0.816390    1.076236
C      -0.069863   -0.491662   -2.484448
N      -0.122173   -0.216276   -3.607403
H       0.893840    1.873074    0.629473
H      -0.053925    1.983688   -0.868263
H      -0.869420    1.836146    0.702361
