23

C      -0.093693    1.527124   -0.027974
C      -0.010021    0.018276    0.058552
C       1.290300   -0.707779   -0.210454
C       0.706464   -0.685682    1.184774
C       1.406583    0.062814    2.324693
C       1.874673   -1.047487    3.298786
C       0.889438   -2.191642    3.098299
C      -0.583080   -1.860990    3.083007
C       0.179273   -1.966904    1.781020
H       0.830319    2.001930    0.315846
H      -0.266320    1.852410   -1.060157
H      -0.914297    1.919414    0.583771
H      -0.902791   -0.491485   -0.298103
H       1.262783   -1.635920   -0.773355
H       2.173438   -0.103080   -0.397123
H       2.237160    0.683175    1.979083
H       0.702127    0.734898    2.828207
H       2.879187   -1.390958    3.024554
H       1.926048   -0.693279    4.334163
H       1.185448   -3.186892    3.411683
H      -1.270051   -2.666718    3.318710
H      -0.917822   -0.886071    3.423749
H      -0.051962   -2.788104    1.110726
