20

C       0.105090    1.345790    0.299998
C      -0.189626   -0.149260    0.315374
O      -0.582930   -0.484601    1.632675
C      -1.285652   -0.516271   -0.720490
C      -1.471636   -2.015493   -0.834621
O      -1.089623   -2.681672   -1.767800
N      -2.022516   -2.605357    0.329132
C      -3.456744   -2.563875    0.615136
C      -2.774095   -3.840377    0.238480
H       0.855696    1.581387    1.059071
H       0.483518    1.661587   -0.676442
H      -0.801156    1.915655    0.529109
H       0.728388   -0.694361    0.036441
H      -0.896871   -1.400121    1.612540
H      -2.218773   -0.036690   -0.403874
H      -1.006855   -0.145169   -1.709132
H      -3.728428   -2.364743    1.647347
H      -4.101002   -2.102201   -0.128762
H      -2.933644   -4.231632   -0.761777
H      -2.557290   -4.580082    1.002663
