18

C      -0.021573    1.525643    0.027878
N      -0.031819    0.083657    0.113887
C      -1.265792   -0.586785    0.543488
C      -0.394542   -1.641760    1.324251
C       0.744448   -0.563134    1.179636
C      -0.820323   -1.949417    2.681219
C      -1.173887   -2.177941    3.806633
C      -0.135699   -2.850446    0.551291
C       0.079187   -3.842604   -0.090887
H       0.983948    1.873825   -0.230537
H      -0.702622    1.853970   -0.764242
H      -0.325626    2.020548    0.970306
H      -1.874724    0.003080    1.246064
H      -1.895829   -0.975359   -0.261147
H       1.730788   -0.932704    0.886504
H       0.825639    0.034838    2.100605
H      -1.485843   -2.392258    4.798811
H       0.268181   -4.722185   -0.654973
