16

C      -0.049484    1.524768    0.072483
C       0.026824    0.040850   -0.043895
C       0.170835   -0.804892   -1.106945
O       0.405192   -0.763049   -2.461627
C       0.240999   -2.131786   -2.859799
O       0.435976   -2.977694   -1.715263
C       0.191930   -2.134147   -0.660494
C       0.059076   -2.150945    0.695797
N      -0.005524   -0.805835    1.067183
H       0.795612    1.940957    0.634694
H      -0.037522    1.972506   -0.923842
H      -0.969744    1.855155    0.571340
H      -0.781487   -2.276456   -3.242624
H       0.986504   -2.377790   -3.619028
H       0.034948   -2.939966    1.426624
H      -0.364112   -0.508458    1.958624
