17

C       0.043735    1.342767    0.335175
C       0.035797   -0.164589    0.382963
O       1.018055   -0.853580    0.478085
C      -1.375912   -0.792958    0.289262
O      -2.374926   -0.131201    0.148420
O      -1.320864   -2.122477    0.391862
C      -2.550180   -2.827138    0.300713
C      -2.669145   -3.831443   -0.805851
C      -2.468839   -4.281098    0.628258
H       1.070336    1.704672    0.391607
H      -0.437831    1.692043   -0.583485
H      -0.550005    1.746869    1.161576
H      -3.404494   -2.230146    0.590921
H      -3.638684   -3.961458   -1.273019
H      -1.820785   -3.924892   -1.473713
H      -1.490719   -4.666094    0.892123
H      -3.297619   -4.730368    1.163242
