17

C       0.031601    1.348675    0.010000
O      -0.031343   -0.081813    0.003081
C      -1.284550   -0.589961    0.009745
O      -2.300138    0.065649    0.020579
N      -1.257251   -1.960813    0.002380
C      -2.475052   -2.780778    0.006784
C      -1.867814   -4.214683   -0.005721
N      -0.399486   -4.061604   -0.015873
C      -0.153278   -2.815174   -0.010714
H       1.093506    1.594877    0.003135
H      -0.462070    1.762102   -0.872834
H      -0.448431    1.752896    0.904545
H      -3.073845   -2.568187    0.896197
H      -3.086901   -2.558277   -0.871246
H      -2.164342   -4.795620    0.873217
H      -2.177532   -4.785880   -0.886491
H       0.837748   -2.379899   -0.015691
