18

C      -0.268447    1.436497    0.011281
O       1.079652    0.981463   -0.071086
C       0.023610   -0.007441    0.029962
C      -0.009157   -0.761608    1.302674
C      -0.096501   -2.089372    1.367178
C      -0.151097   -3.008203    0.176938
C      -0.280198   -2.287904   -1.150426
N      -1.497343   -1.478413   -1.331635
C      -0.188703   -0.805877   -1.220449
H      -0.539352    1.942225    0.937857
H      -0.671661    1.887246   -0.895455
H       0.059390   -0.168031    2.209783
H      -0.113031   -2.571584    2.341536
H       0.760810   -3.622521    0.164530
H      -0.983383   -3.716301    0.291067
H       0.079075   -2.843898   -2.013641
H      -1.791212   -1.500529   -2.304333
H       0.242542   -0.350126   -2.108204
