18

C      -0.756129    1.409164   -0.415227
N      -0.494797    0.009153   -0.103457
C      -1.221816   -0.611647    1.039297
C      -0.103151   -1.703557    1.194035
C       0.559709   -0.310194    0.899470
C      -0.310727   -0.005051    2.211229
C      -0.447463    1.209120    3.087057
C      -0.033425   -1.426929    2.678970
O       0.145806   -2.008624    3.709063
H       0.027897    1.770647   -1.088810
H      -1.708115    1.477061   -0.952064
H      -0.802399    2.085739    0.449727
H      -2.299399   -0.778761    1.061631
H       0.000002   -2.596023    0.584267
H       1.622870   -0.115060    0.753792
H      -0.647246    2.128255    2.534461
H      -1.261972    1.060208    3.804247
H       0.470368    1.354273    3.667120
