23

C      -1.046576    0.969070    0.061764
C      -0.095200   -0.221519    0.032040
C       1.208636   -0.177601   -0.826084
C       1.981655   -0.832503    0.346467
O       2.731809    0.117706    1.120614
C       1.636208    0.291380    2.058185
C       1.304283    1.751713    2.301731
C       0.731605   -0.709372    1.269988
C       0.133262   -1.833177    2.091698
H      -0.533808    1.916489    0.237955
H      -1.570672    1.055560   -0.896833
H      -1.808741    0.850706    0.840584
H      -0.676340   -1.095946   -0.285904
H       1.170242   -0.743178   -1.760660
H       1.587711    0.826278   -1.034302
H       2.532690   -1.759416    0.162161
H       1.909662   -0.165283    3.022144
H       0.406230    1.851582    2.920728
H       2.134707    2.227716    2.833858
H       1.154694    2.295938    1.368065
H      -0.704736   -1.471399    2.701380
H      -0.250051   -2.635781    1.452324
H       0.870659   -2.271069    2.773281
