20

C      -0.243368    1.544380    0.014659
C       0.013461    0.030818   -0.007681
C       0.924264   -0.393836   -1.201756
C       2.313447   -0.532406   -0.609499
O       2.719715    0.591979    0.186003
C       2.217467   -0.577220    0.853500
C       0.770289   -0.472886    1.236902
C       0.301827   -0.250997    2.623621
N       0.287606   -1.609519    2.046896
H       0.700334    2.090279    0.077948
H      -0.764478    1.858040   -0.896458
H      -0.865881    1.830978    0.868147
H      -0.952473   -0.483618   -0.075492
H       0.618746   -1.365270   -1.607866
H       0.888570    0.330264   -2.021812
H       3.110557   -1.020528   -1.164556
H       2.913780   -1.105870    1.497961
H       1.017752   -0.101438    3.427614
H      -0.645088    0.263742    2.765206
H      -0.660020   -1.851977    1.766620
