21

C      -0.592440    1.418055    0.025849
C       0.146078    0.085504   -0.015743
C       1.258713   -0.019232   -1.063429
O       2.116019   -1.080113   -0.643961
C       1.936919   -1.351376    0.751300
C       3.284948   -1.373011    1.455100
C       0.920629   -0.313906    1.235782
C       1.108916    0.546739    2.411095
O       0.215348   -0.577418    2.440871
H       0.100540    2.258640    0.139004
H      -1.161577    1.577149   -0.895393
H      -1.300246    1.441455    0.860559
H      -0.578555   -0.719533   -0.199990
H       0.886774   -0.250765   -2.066801
H       1.822197    0.926543   -1.121794
H       1.466140   -2.341896    0.853946
H       3.782179   -0.401108    1.383171
H       3.161540   -1.634259    2.511301
H       3.931613   -2.123859    0.993158
H       2.001417    0.446348    3.024735
H       0.627172    1.521263    2.455990
