14

C       0.006025    1.505835   -0.006879
C      -0.038948    0.015941   -0.011365
C      -1.066670   -0.825793   -0.154407
C      -0.602217   -2.258168   -0.087579
N       0.819231   -2.103845    0.111402
C       1.217271   -0.787858    0.165733
O       2.348239   -0.374656    0.323876
H       0.668735    1.871720   -0.798627
H      -0.985650    1.942828   -0.146654
H       0.425221    1.873886    0.935851
H      -2.107697   -0.566397   -0.300647
H      -1.082682   -2.802630    0.738914
H      -0.837194   -2.804790   -1.012978
H       1.471642   -2.863003    0.204076
