15

C       0.053183    1.436833    0.055949
C      -0.071728   -0.047678    0.024639
C      -0.071894   -0.920788   -1.008261
C      -0.036078   -2.280345   -0.331263
N      -0.918921   -2.128311    0.866540
C      -0.047518   -0.972995    1.237902
C       1.114962   -1.924593    0.706093
O       2.238847   -2.196940    0.946219
H       0.976758    1.740499    0.564688
H       0.072197    1.857151   -0.953187
H      -0.774628    1.900066    0.606232
H       0.036624   -0.721203   -2.065395
H      -0.087699   -3.199878   -0.909439
H      -1.848027   -1.801771    0.586375
H      -0.106139   -0.570932    2.247512
