19

O      -0.957959    1.271788    0.577275
C       0.045480    1.168891   -0.081221
C       1.242638    2.084474    0.014045
C       1.391849    2.900022   -1.277113
C       0.392218    4.087952   -1.394788
C       1.508920    5.054857   -0.922382
C       2.565041    3.951964   -1.255502
C       3.687345    3.751117   -0.364634
C       4.605961    3.575836    0.392664
H       0.141768    0.367345   -0.852057
H       1.122915    2.733400    0.886185
H       2.143985    1.474270    0.158634
H       1.424345    2.221580   -2.135426
H       0.093347    4.272575   -2.429811
H      -0.507122    4.025576   -0.778555
H       1.617954    6.004994   -1.448404
H       1.465671    5.252185    0.150652
H       2.930212    4.090716   -2.278872
H       5.422271    3.429627    1.055906
