16

C      -0.684928    1.019598    0.003820
N       0.694876    0.576242    0.039707
C       1.294958   -0.021826   -1.012825
N       0.660888   -0.272311   -2.097673
C       1.344684   -0.910666   -3.202903
C       1.127491   -0.042324   -4.462115
O       1.930440    0.118132   -5.335611
C       2.769394   -1.224450   -3.007364
N       3.876082   -1.452849   -2.765771
H      -0.839391    1.779351   -0.770776
H      -1.352135    0.180369   -0.215939
H      -0.947514    1.440253    0.975838
H       1.259608    0.796447    0.839950
H       2.347347   -0.272281   -0.841734
H       0.831654   -1.861767   -3.429418
H       0.119395    0.420762   -4.464018
