18

C       0.015411    1.506630    0.047172
C       0.041966   -0.000117    0.057820
C      -0.880648   -0.806305    0.923981
C       0.611508   -0.788163    1.201873
C       1.481885   -1.964690    0.799504
N       2.138657   -1.658177   -0.468361
C       1.451912   -1.151013   -1.543157
O       1.818044   -1.238357   -2.686949
O       0.275448   -0.524304   -1.241771
H       0.985292    1.910136   -0.261126
H      -0.742873    1.868437   -0.653802
H      -0.220066    1.895186    1.042037
H      -1.537993   -0.278886    1.606067
H      -1.296650   -1.710259    0.491708
H       0.951726   -0.219735    2.060493
H       2.258507   -2.138816    1.548987
H       0.887816   -2.887464    0.729805
H       2.909407   -2.242507   -0.754079
