19

C      -0.084623    1.418974   -0.007966
C      -0.030638   -0.033946   -0.000031
C       0.006951   -1.238320    0.009409
C       0.079510   -2.665614    0.005084
C       0.606691   -3.640207    1.097363
C      -0.078264   -4.459938   -0.015850
O      -1.183255   -3.474048   -0.024102
C       0.665945   -3.623449   -1.091912
C       0.108644   -3.545519   -2.497964
H       0.503811    1.834755   -0.833158
H      -1.115863    1.769502   -0.125348
H       0.304912    1.837448    0.926465
H       1.688942   -3.725647    1.222221
H       0.062778   -3.596204    2.040754
H      -0.354176   -5.513803   -0.027466
H       1.757488   -3.709372   -1.072086
H      -0.980167   -3.470859   -2.470579
H       0.505636   -2.670431   -3.023218
H       0.387313   -4.433034   -3.076353
