15

C       0.003967    1.504794   -0.121991
C      -0.108953   -0.021598   -0.107758
C      -1.465501   -0.497278    0.425166
N      -1.590490   -1.946175    0.461777
C      -2.380694   -2.648685   -0.393482
O      -3.094666   -2.167730   -1.247923
H       0.977455    1.825803   -0.503569
H      -0.767642    1.951872   -0.757869
H      -0.113271    1.922503    0.884254
H       0.030073   -0.421659   -1.118624
H       0.693646   -0.447575    0.509128
H      -1.635945   -0.093778    1.431712
H      -2.274125   -0.139570   -0.216909
H      -1.016035   -2.466496    1.105871
H      -2.305423   -3.740300   -0.214549
