19

C      -0.034611    1.573194    0.057668
C       0.016112    0.043451    0.043143
N      -1.306203   -0.580078   -0.039449
C      -1.962359   -0.690069   -1.335904
C      -1.957483   -2.159207   -1.740695
O      -2.903936   -2.893486   -1.585836
C      -1.999049   -0.780305    1.150335
N      -3.270284   -1.304661    1.020394
O      -1.521403   -0.470401    2.228755
H       0.978576    1.985887    0.098323
H      -0.522710    1.971442   -0.838647
H      -0.584409    1.917554    0.936668
H       0.611813   -0.316584   -0.802838
H       0.483115   -0.319184    0.959581
H      -2.993472   -0.325366   -1.295829
H      -1.407167   -0.094716   -2.066415
H      -0.987473   -2.548402   -2.117599
H      -3.491777   -1.923842    0.251950
H      -3.665887   -1.563765    1.910533
