20

N      -0.117524    1.453275   -0.068514
C       0.037055    0.090760   -0.015215
O       1.154148   -0.398641   -0.007554
C      -1.220785   -0.742759    0.000647
C      -2.421672   -0.195000    0.768486
C      -2.442268   -0.191861   -0.728355
C      -1.080344   -2.244797   -0.000626
C      -0.032254   -3.018899   -0.761812
C      -0.024826   -3.020526    0.748936
H       0.724866    1.995546    0.031859
H      -0.993917    1.916667    0.089708
H      -3.030089   -0.925648    1.290126
H      -2.314718    0.741230    1.305326
H      -2.342441    0.746944   -1.260793
H      -3.068376   -0.918630   -1.234215
H      -2.061814   -2.714478    0.003787
H      -0.353144   -3.914240   -1.283931
H       0.756688   -2.458800   -1.244622
H       0.768694   -2.461364    1.225170
H      -0.340742   -3.917085    1.272048
