16

O      -0.254261    1.448547    0.091046
C       0.002487    0.057273    0.004503
C       0.793686   -0.287068   -1.271909
C       0.065170    0.130536   -2.534022
O      -0.042152   -0.564132   -3.512229
C       0.720421   -0.483761    1.260249
C      -0.001347   -0.217874    2.497011
C      -0.604693   -0.003241    3.513376
H       0.570970    1.898208    0.306319
H      -0.989708   -0.405000   -0.048256
H       1.751382    0.255864   -1.242712
H       1.018828   -1.355727   -1.338153
H      -0.374644    1.149251   -2.493410
H       0.875029   -1.563608    1.142343
H       1.725624   -0.039102    1.309772
H      -1.138022    0.188566    4.411280
