13

O       0.171295    1.337070    0.306300
C       0.071430   -0.033806   -0.004185
C      -1.361959   -0.529668   -0.040837
C      -1.683244   -1.956691    0.181191
O      -1.959157   -0.996778    1.183582
C      -2.327778    0.252046   -0.873586
O      -2.003785    1.165588   -1.594589
H      -0.251541    1.811739   -0.420147
H       0.543285   -0.271079   -0.971029
H       0.608220   -0.582399    0.775554
H      -2.551030   -2.406033   -0.300722
H      -0.856628   -2.636497    0.384961
H      -3.386083   -0.066946   -0.762733
