13

C      -0.032253   -1.179116    0.002103
C      -0.018024    0.025663    0.008043
C       0.018767    1.434145    0.011568
C      -0.874088    2.450225    0.777794
C       0.307125    3.448876    0.772687
C       1.161298    2.492186    0.025860
N       0.324671    3.484341   -0.733694
C      -0.818728    2.474733   -0.719412
H      -0.048578   -2.240562   -0.002481
H      -1.677215    2.229740    1.465614
H       0.550220    4.312976    1.378164
H       2.233994    2.412061   -0.099262
H      -1.567797    2.363959   -1.492797
