17

C       0.423764    1.506466   -0.514651
C       0.162140    0.093582   -0.105489
C      -0.826236   -0.754502   -0.539597
N      -0.635659   -1.933814    0.148203
C       0.451845   -1.756777    0.948129
N       0.957294   -0.549571    0.822606
C       0.939831   -2.827775    1.837497
C       0.059910   -3.484719    2.822632
O       0.382814   -4.125871    1.586596
H       1.432513    1.615709   -0.927156
H      -0.292685    1.835998   -1.272130
H       0.351903    2.186208    0.341389
H      -1.620617   -0.633902   -1.257375
H      -1.117422   -2.809460    0.026845
H       2.008881   -2.802848    2.037525
H       0.494778   -3.939547    3.711135
H      -0.970240   -3.147119    2.920635
