18

C      -0.198025    1.540892   -0.036249
C       0.000037    0.021890    0.001473
C       0.809848   -0.400725    1.234025
O      -1.257518   -0.649372    0.132310
C       0.690266   -0.480149   -1.254425
N       1.490510    0.283652   -1.959411
O       1.950418   -0.509504   -3.008394
C       1.401396   -1.728178   -2.898283
C       0.591229   -1.789790   -1.814002
H       0.758766    2.060094   -0.125078
H      -0.808176    1.831186   -0.898024
H      -0.703066    1.864290    0.877805
H       0.289272   -0.080337    2.140770
H       0.919181   -1.487927    1.264229
H       1.804335    0.051424    1.211940
H      -1.831693   -0.338922   -0.576630
H       1.678308   -2.437359   -3.663159
H       0.002353   -2.615719   -1.454847
