18

O      -0.390424    1.331623   -0.404734
N      -0.243744   -0.066524   -0.492105
C      -1.218730   -0.660905    0.054080
C      -2.503192   -0.247653    0.744212
C      -2.920403   -1.759932    0.717877
C      -3.832255   -2.152670   -0.411701
C      -3.189222   -2.755855   -1.412043
C      -1.709149   -2.928250   -1.153054
C      -1.496221   -2.149710    0.165458
H       0.399151    1.646005   -0.857749
H      -2.339028    0.159661    1.747443
H      -3.137775    0.448135    0.188629
H      -3.223830   -2.167685    1.685863
H      -4.896161   -1.939735   -0.396016
H      -3.657272   -3.108657   -2.325169
H      -1.443066   -3.988624   -1.050478
H      -1.088240   -2.527154   -1.961799
H      -0.831832   -2.660339    0.866502
