16

O       0.173766    1.403863    0.095630
C       0.008671    0.039450    0.021557
C       0.555779   -0.827952   -1.144402
C      -0.482731   -1.855857   -0.702473
C      -1.321892   -0.845479   -0.024740
N      -0.598899   -1.855179    0.801419
C       0.349151   -0.802484    1.276227
C       1.782489   -1.180840    1.538468
O       2.283467   -2.229763    1.220379
H       0.082642    1.782178   -0.785548
H       0.276892   -0.399160   -2.112715
H       1.614806   -1.099132   -1.140980
H      -0.772726   -2.772608   -1.196460
H      -2.384125   -0.650743    0.038017
H      -0.074955   -0.327838    2.168764
H       2.376256   -0.384933    2.045516
