17

O      -0.206955    1.301012   -0.220130
N      -0.001437   -0.064082    0.043201
C      -1.087553   -0.704726   -0.010502
C      -2.549311   -0.424928   -0.270365
N      -2.811705   -1.892761   -0.153299
C      -1.388983   -2.180076    0.202082
C      -0.692104   -3.154590   -0.723411
C      -1.446106   -4.122428   -1.528444
O      -0.881906   -2.948486   -2.117780
H       0.687250    1.655722   -0.170011
H      -3.021878    0.205722    0.493054
H      -2.787443   -0.016760   -1.258238
H      -3.455959   -2.121207    0.594284
H      -1.231782   -2.505654    1.240466
H       0.333737   -3.390634   -0.435918
H      -0.979144   -5.063264   -1.816580
H      -2.531514   -4.119126   -1.462714
