19

O      -0.223199    1.193368   -0.684728
C      -0.076947   -0.110651   -0.201167
C      -0.513278   -0.414355    1.213431
C      -1.340827   -0.869864    0.027951
C       1.128857   -0.827795   -0.765996
O       1.018264   -1.088698   -2.154619
C       1.863807   -0.173772   -2.839733
C       2.971312    0.063883   -1.817783
O       2.263129    0.016417   -0.582408
H       0.598321    1.647204   -0.457914
H       0.032590   -1.157214    1.785757
H      -0.888403    0.424125    1.788394
H      -2.260404   -0.334221   -0.176081
H      -1.363177   -1.924855   -0.222524
H       1.277064   -1.794485   -0.260935
H       2.208182   -0.643856   -3.764239
H       1.328152    0.754942   -3.075259
H       3.732814   -0.727647   -1.859902
H       3.459065    1.038313   -1.900852
