20

N      -0.098608    1.249882    0.122444
C      -0.068629   -0.011832    0.152707
O      -1.114223   -0.723921   -0.308485
C      -1.035453   -2.135254   -0.148956
C      -1.571444   -2.676496    1.211304
C      -2.994438   -2.418427    0.629024
C      -2.303311   -2.828041   -0.707875
C      -1.963436   -4.308759   -0.457557
C      -1.401197   -4.192584    1.003794
H       0.775235    1.624541    0.486031
H       0.759038   -0.635601    0.519218
H      -0.057633   -2.495313   -0.494564
H      -1.243461   -2.250869    2.160235
H      -3.812821   -3.046098    0.992270
H      -3.275230   -1.366706    0.650412
H      -2.704757   -2.549039   -1.681454
H      -2.848830   -4.946449   -0.519731
H      -1.221867   -4.694798   -1.163023
H      -0.357161   -4.512051    1.077052
H      -1.979385   -4.773018    1.727410
