15

O      -0.644057    0.615163    0.736490
C       0.187347    0.912501   -0.082185
C       1.195040    1.993764    0.118543
O       2.395673    1.869643   -0.699755
C       1.522886    2.896834   -0.995485
C       0.931756    3.318647   -2.353440
C       0.337426    4.564492   -1.649604
C       1.802858    4.398455   -1.175235
O       2.180676    4.089944   -2.577879
H       0.268541    0.405936   -1.069153
H       1.355395    2.320132    1.144068
H       0.546077    2.723431   -3.179012
H       0.187928    5.412579   -2.316670
H      -0.470332    4.427576   -0.926623
H       2.443644    5.071093   -0.608145
