13

N       0.038107    1.370869    0.151088
C      -0.068157    0.007548    0.052612
C      -1.214116   -0.714183    0.030365
C      -1.143385   -2.148954   -0.003325
N      -2.178361   -2.915957   -0.025465
C       0.248503   -2.633916   -0.014395
N       1.323090   -1.937109   -0.002962
O       1.171726   -0.546766    0.028422
H       0.912500    1.758214   -0.171246
H      -0.777764    1.896333   -0.120756
H      -2.177125   -0.220705    0.046605
H      -1.893952   -3.897228   -0.048720
H       0.433749   -3.706639   -0.037660
