16

C      -0.280496    1.614470    0.118121
C       0.098332    0.132389   -0.044959
C       0.845792   -0.397354    1.135254
C       2.127842   -0.876827    1.235140
O       2.336547   -1.231523    2.549029
C       1.178902   -0.945373    3.155972
N       0.255969   -0.451862    2.389004
C       3.201402   -1.057621    0.273950
O       4.298293   -1.502730    0.526416
H       0.612863    2.242558    0.186809
H      -0.872090    1.953544   -0.736717
H      -0.869026    1.760283    1.027272
H      -0.815448   -0.462158   -0.163820
H       0.690323   -0.010194   -0.953939
H       1.119212   -1.151287    4.214064
H       2.920545   -0.740056   -0.752723
