17

C      -0.060527    1.532347   -0.076572
C      -0.012815    0.030527    0.048392
N       1.324924   -0.615060   -0.138152
C       0.671325   -0.664763    1.143404
C       1.205709   -0.234891    2.522437
N      -0.142741   -0.732395    3.056127
C       0.250118   -1.826592    2.059321
C       1.671500   -1.708241    2.687638
O       2.519797   -2.367129    3.199270
H       0.840085    1.981968    0.349099
H      -0.124543    1.832564   -1.127654
H      -0.933290    1.934370    0.448071
H      -0.863327   -0.496082   -0.383009
H       1.243034   -1.498855   -0.635322
H       1.646962    0.706445    2.840020
H      -0.035906   -1.076215    4.015372
H      -0.389726   -2.682735    1.853294
