17

C      -0.058052    1.613032    0.013818
C       0.054064    0.106340   -0.132223
C       0.621577   -0.821455   -1.151517
C       1.986563   -0.573778   -1.823305
C       2.643349    0.709615   -1.526683
O       2.050335    1.949171   -1.756031
C       2.510779   -0.311597   -0.399710
N       1.205415   -0.742399    0.241752
H       0.877193    2.058770    0.349071
H      -0.346981    2.099639   -0.918425
H      -0.817257    1.830731    0.771348
H      -0.822003   -0.383086    0.297601
H       0.059580   -1.705848   -1.440939
H       2.346999   -1.269236   -2.571643
H       3.689655    0.680551   -1.846899
H       2.502504    2.604089   -1.213007
H       3.401719   -0.684152    0.092963
