18

C      -0.479808    1.370753    0.189255
C      -0.035826   -0.073553    0.157594
C       1.299156   -0.481668   -0.364708
C       1.019374   -0.640021    1.121843
C       1.723828    0.254517    2.060312
O       2.187161    1.340834    1.819718
O       1.786835   -0.337506    3.304728
C       2.416032    0.347337    4.312338
N       2.468198   -0.192368    5.447724
H       0.352682    2.039004    0.415236
H      -0.895678    1.654248   -0.783575
H      -1.259019    1.527168    0.942752
H      -0.839925   -0.783603   -0.017503
H       1.394173   -1.390962   -0.946974
H       1.995611    0.309407   -0.621451
H       0.835429   -1.633019    1.510396
H       2.807876    1.312313    3.990533
H       2.960565    0.420913    6.095906
