20

C       0.052685    1.572276    0.065723
C       0.009739    0.046039   -0.035501
O       0.794943   -0.551590    0.995697
C      -1.421180   -0.526943   -0.021169
C      -2.338799    0.073092   -1.084460
C      -1.487076   -2.088514    0.089649
N      -2.171618   -1.904351    1.376709
C      -2.026060   -0.544205    1.413317
O      -2.236726    0.285237    2.264048
H       1.092774    1.897167    0.155752
H      -0.378908    2.052498   -0.816442
H      -0.503985    1.912050    0.945594
H       0.492638   -0.271229   -0.969100
H       0.527663   -0.148013    1.830433
H      -1.891089   -0.008854   -2.081726
H      -3.301853   -0.445996   -1.104186
H      -2.536085    1.129503   -0.885743
H      -2.093134   -2.592609   -0.668865
H      -0.507058   -2.562532    0.181448
H      -2.353201   -2.555956    2.126707
