23

C      -0.041874    1.365185   -0.235279
O      -0.046231   -0.013921    0.045335
C      -1.346379   -0.580687    0.110278
C      -2.037200   -0.729109   -1.276858
C      -2.748925   -2.104295   -1.272299
C      -2.143444   -2.902556   -0.120734
C      -0.648473   -3.110533   -0.057726
C       0.320312   -2.992944   -1.216319
C      -1.283179   -1.970888    0.711400
H       0.996558    1.703769   -0.191164
H      -0.441083    1.593750   -1.235371
H      -0.630558    1.932616    0.504168
H      -1.968346    0.052440    0.765979
H      -2.739518    0.085639   -1.473194
H      -1.268951   -0.674863   -2.052742
H      -3.820924   -1.977918   -1.085603
H      -2.659672   -2.614087   -2.238398
H      -2.776843   -3.645350    0.353352
H      -0.377420   -3.928065    0.608101
H       1.312585   -2.699226   -0.859821
H       0.417512   -3.959432   -1.724169
H       0.017090   -2.260080   -1.964097
H      -1.267165   -2.030790    1.794247
