20

C       0.008835    1.532522   -0.028238
C      -0.010375    0.024049   -0.077096
C       0.695167   -0.735799   -1.147126
N       1.255565   -0.654516    0.221264
C       1.097616   -1.994753    0.828567
C       0.126436   -2.820965   -0.052517
C       0.238385   -2.141206   -1.413224
C      -0.460164   -2.571117   -2.626831
O       0.935283   -2.839152   -2.455263
H       0.949451    1.916559   -0.431515
H      -0.818411    1.953555   -0.609811
H      -0.085541    1.888520    1.003246
H      -0.920589   -0.430459    0.315132
H       1.226801   -0.222545   -1.943484
H       2.088299   -2.459804    0.841841
H       0.760025   -1.898016    1.864758
H       0.405519   -3.873966   -0.122041
H      -0.901643   -2.772467    0.319609
H      -1.112904   -3.443224   -2.594397
H      -0.705480   -1.842469   -3.399142
