18

O       0.294791    0.063228   -0.832215
C       0.180235    1.121588   -0.279261
C       1.367955    2.006433    0.151045
C       2.723109    1.227492    0.138078
C       3.594298    1.908277   -0.938546
C       2.579393    2.539263   -1.902190
C       1.516198    3.114387   -0.959376
C       1.041249    2.597827    1.445302
N       0.761691    3.061775    2.467042
H      -0.812965    1.576249   -0.080622
H       3.190369    1.225930    1.123729
H       2.504603    0.192892   -0.136337
H       4.211765    2.693225   -0.487094
H       4.270176    1.202252   -1.427374
H       3.011442    3.305106   -2.551453
H       2.136871    1.768565   -2.543478
H       0.561456    3.343036   -1.442807
H       1.871978    4.035725   -0.489372
