21

C       0.228072    1.307010   -0.336862
O       0.268873   -0.090042   -0.171774
C       0.457404   -0.478305    1.170319
C       0.474973   -1.984399    1.216705
O       1.735230   -2.647032    1.093490
C       1.028600   -2.768449    2.329744
C       1.647678   -2.164235    3.563705
O       2.430397   -3.158751    4.184870
C       3.057159   -2.706743    5.361109
H       1.169498    1.784091   -0.021646
H       0.070638    1.505299   -1.399540
H      -0.595361    1.762978    0.236522
H       1.399377   -0.071644    1.568421
H      -0.366924   -0.096098    1.799823
H      -0.326824   -2.435600    0.630072
H       0.607624   -3.759033    2.508967
H       2.261808   -1.291166    3.295826
H       0.851899   -1.818700    4.248685
H       3.746554   -1.870998    5.162341
H       2.323870   -2.373905    6.113588
H       3.626909   -3.544543    5.769601
