12

O       0.292703    1.093607    0.686665
C       0.022224    0.061007   -0.246357
C      -1.374934   -0.474192   -0.126375
C      -2.203063   -0.421759    0.951786
O      -3.378473   -1.007871    0.679140
N      -3.354215   -1.482074   -0.626576
C      -2.171856   -1.159387   -1.088946
H      -0.303325    1.824891    0.491937
H       0.208728    0.385658   -1.281855
H       0.755481   -0.724381   -0.029271
H      -2.093296   -0.009107    1.941849
H      -1.918175   -1.425676   -2.106019
