19

C      -0.011989    1.555442    0.173728
C      -0.043047    0.038286   -0.021786
C       0.699193   -0.461185   -1.282371
C       0.824504   -2.001008   -1.326510
C      -0.048321   -2.462463   -2.488520
O      -0.319092   -3.587617   -2.825358
N      -0.484392   -1.311001   -3.129363
C      -0.048074   -0.111634   -2.569062
N      -0.222171    1.068740   -3.004240
H       1.017882    1.911199    0.289766
H      -0.445987    2.072668   -0.684030
H      -0.565968    1.837183    1.074643
H       0.417690   -0.452463    0.844525
H      -1.081148   -0.318089   -0.056926
H       1.680552    0.020603   -1.318716
H       1.847860   -2.339544   -1.514601
H       0.491465   -2.489718   -0.407285
H      -1.050259   -1.365032   -3.964136
H      -0.760119    1.080953   -3.872751
