20

O      -0.018794   -0.098530   -0.177437
C      -0.036195    1.116509   -0.104739
C      -1.324540    1.928864   -0.189045
C      -1.252599    3.237397    0.606239
C      -0.087713    4.086958    0.097963
C       0.537712    5.049845    1.147402
C       1.614142    3.972110    1.457668
C       1.241340    3.282807    0.110401
N       1.113797    1.844656    0.054136
H      -1.516133    2.141512   -1.249304
H      -2.131011    1.276390    0.152351
H      -2.192738    3.794032    0.529382
H      -1.113985    3.004614    1.669416
H      -0.347283    4.526655   -0.869628
H       0.965928    5.943354    0.686167
H      -0.108957    5.361371    1.971056
H       2.646825    4.305684    1.580299
H       1.341988    3.344977    2.310145
H       1.911916    3.627688   -0.685817
H       1.951591    1.280637    0.094825
