20

C       0.038307    1.419087   -0.268605
O      -0.014049   -0.001535   -0.129246
C      -1.270620   -0.519582   -0.119720
O      -2.287825    0.134511   -0.203138
N      -1.221472   -1.871242   -0.020696
C      -0.163575   -2.768935    0.451800
C      -1.261611   -3.842935    0.728184
C      -1.333959   -4.413855    2.135282
C      -2.321490   -2.762670    0.344131
H       1.097027    1.680215   -0.245239
H      -0.409181    1.735235   -1.214799
H      -0.493122    1.912364    0.549571
H       0.585813   -3.018429   -0.305664
H       0.350307   -2.405643    1.349961
H      -1.226421   -4.649784   -0.007938
H      -1.368610   -3.614998    2.884358
H      -2.229000   -5.031766    2.264204
H      -0.462293   -5.040218    2.353522
H      -2.919663   -2.390247    1.184574
H      -2.993890   -3.008330   -0.483463
