17

O      -0.047070    0.052794   -0.280432
C       0.071946    1.192495    0.094316
C       1.339060    1.961377    0.065945
C       1.217704    3.458400   -0.190678
C       1.545059    2.969633    1.189659
C       2.974438    3.557071    1.302561
C       2.767094    5.016628    0.809151
C       2.549183    4.192012   -0.490565
O       3.555973    3.259684   -0.000062
H      -0.802661    1.755971    0.500968
H       2.197812    1.431438   -0.325310
H       0.268467    3.897695   -0.471769
H       0.861491    3.012318    2.028678
H       3.601779    3.278178    2.147809
H       1.934950    5.599126    1.212762
H       3.697062    5.586807    0.790501
H       2.737876    4.568062   -1.494938
