18

C      -0.131481    1.434732   -0.022651
C      -0.064256   -0.051027    0.083427
C      -0.999864   -0.959852    0.339359
C      -2.398106   -1.403407   -0.030993
N      -2.257484   -1.694109   -1.493234
C      -1.840883   -2.716876   -0.510395
C      -0.466842   -2.341175    0.121556
O       0.775629   -2.194864   -0.530831
C       1.199065   -0.843242   -0.272893
H       0.538479    1.920768    0.698407
H       0.183989    1.769424   -1.018877
H      -1.144287    1.802398    0.159173
H      -3.359446   -1.177624    0.409813
H      -3.178867   -1.984632   -1.826905
H      -2.300156   -3.697846   -0.502134
H      -0.365170   -2.938734    1.043295
H       1.666028   -0.443000   -1.182646
H       1.961110   -0.829164    0.524622
