16

C       0.025530    1.372959   -0.302520
C      -0.028552   -0.043077    0.199641
O       0.904355   -0.632390    0.696514
C      -1.396905   -0.749499    0.044338
O      -2.357750   -0.186638   -0.451992
N      -1.375107   -2.015237    0.516250
C      -2.524032   -2.901563    0.427956
C      -2.187545   -4.191250   -0.167175
C      -1.898070   -5.258798   -0.635146
H       1.023684    1.784218   -0.152661
H      -0.249476    1.399565   -1.361708
H      -0.724743    1.977837    0.216555
H      -0.490917   -2.351216    0.871533
H      -2.963230   -3.058448    1.422673
H      -3.273125   -2.373575   -0.172039
H      -1.651417   -6.200312   -1.060115
