17

O      -0.018795    0.356866   -1.113217
C      -0.018079    1.211517   -0.250071
C      -1.294333    1.797933    0.252902
C      -1.643404    1.900137    1.743703
C      -1.240527    3.124642    0.988448
O      -0.032232    3.788783    1.205219
C       1.186923    3.157458    0.953938
C       1.644051    1.944580    1.696967
C       1.255638    1.832407    0.216651
H      -2.121699    1.609700   -0.421791
H      -2.693124    1.783699    1.989970
H      -0.971415    1.470075    2.472694
H      -2.009823    3.855817    0.764199
H       1.929492    3.909073    0.708196
H       2.703110    1.856649    1.913257
H       1.004920    1.496794    2.444597
H       2.068279    1.666345   -0.481358
