17

C       0.624110    0.777802   -0.225789
O      -0.696133    0.975587    0.247302
C      -1.549872   -0.038573   -0.020515
C      -1.427041   -1.247144   -0.662273
C      -2.721354   -1.860166   -0.603837
C      -3.576995   -1.019469    0.060627
C      -5.022317   -1.146632    0.405745
N      -2.839536    0.101377    0.414845
H       1.193111    1.664136    0.058565
H       1.077095   -0.112445    0.229138
H       0.639340    0.664765   -1.317430
H      -0.536465   -1.648743   -1.116289
H      -2.988085   -2.823559   -1.012229
H      -5.198952   -1.117332    1.489178
H      -5.632324   -0.351370   -0.042983
H      -5.405379   -2.101104    0.036935
H      -3.177244    0.905648    0.914522
