19

C       0.281724    1.466122    0.034771
C       0.036931   -0.010751   -0.003077
C      -0.190433   -0.778919   -1.073278
C      -0.378645   -2.244713   -0.750333
C      -0.112584   -2.297851    0.756926
O       1.277819   -2.547952    1.075133
C       1.403282   -1.296695    1.782206
C       0.027725   -0.832064    1.268968
O      -0.792654   -0.324100    2.292807
H       1.290781    1.689936    0.403818
H       0.175431    1.917548   -0.954867
H      -0.412314    1.964288    0.721173
H      -0.225311   -0.404699   -2.092181
H      -1.381291   -2.602484   -1.020563
H       0.339986   -2.885251   -1.274977
H      -0.779971   -2.956081    1.323672
H       1.417151   -1.433307    2.871186
H       2.285181   -0.728023    1.466929
H      -1.642022   -0.085908    1.904691
