16

O      -0.184422    1.324426   -0.530330
C      -0.084269    0.004347   -0.155133
C       0.382166   -1.057998   -1.188764
C      -0.416867   -2.053522   -0.345907
N      -0.286386   -1.723442    1.096988
C       0.591272   -0.496263    1.142093
C      -1.263300   -0.960156    0.234472
C      -2.667963   -0.733554    0.539396
O      -3.190354    0.352723    0.392077
H      -1.011577    1.667771   -0.171119
H      -0.091398   -0.895014   -2.158702
H       1.457718   -1.219202   -1.306772
H      -0.708161   -3.069527   -0.580784
H       1.667268   -0.699954    1.130601
H       0.319784    0.085745    2.025443
H      -3.227856   -1.608408    0.930393
