17

C      -0.036386    1.585916    0.047551
C       0.059830    0.087973   -0.000543
C      -0.842697   -0.837413    0.815022
C       0.624626   -0.964746    0.998830
C       1.211073   -1.820042   -0.144674
C       0.768385   -3.188834   -0.299385
C       0.372988   -4.315716   -0.442416
C       0.662428   -0.700958   -1.117720
O       0.870842   -0.472538   -2.272405
H       0.900056    2.052800   -0.273166
H      -0.830673    1.945272   -0.615007
H      -0.264333    1.932797    1.060107
H      -1.384599   -0.317766    1.598995
H      -1.402101   -1.637101    0.339259
H       1.135133   -0.761855    1.930970
H       2.305042   -1.756995   -0.180807
H       0.034081   -5.314010   -0.569262
