19

C       0.061147    1.541193   -0.007452
C      -0.066941    0.019316    0.095972
C      -1.504475   -0.527796   -0.024983
C      -2.160899   -0.147400   -1.358433
C      -1.533445   -2.071319    0.209684
O      -2.399129   -2.255012    1.354873
C      -2.748853   -1.003827    1.736883
N      -2.334462    0.000115    1.088271
H       1.089761    1.852533    0.198900
H      -0.196137    1.906596   -1.006114
H      -0.597816    2.031557    0.713520
H       0.549462   -0.463083   -0.674823
H       0.332157   -0.310546    1.063052
H      -1.557600   -0.497717   -2.203575
H      -3.155214   -0.597497   -1.436371
H      -2.278249    0.935162   -1.439781
H      -1.956379   -2.630748   -0.629278
H      -0.551218   -2.485829    0.457039
H      -3.389981   -0.970350    2.611497
