17

O      -0.161642    0.028673   -0.098744
C      -0.004068    1.219206    0.040735
C       1.282688    1.904667   -0.042200
C       1.874350    3.025294    0.850009
C       3.191517    2.249471    0.955395
C       2.713285    1.360293   -0.240000
O       3.175084    1.859752   -1.483879
C       2.638315    3.178583   -1.631399
C       1.532457    3.298309   -0.585231
H      -0.863659    1.894489    0.264020
H       1.365502    3.542292    1.655455
H       4.127520    2.795740    0.803741
H       3.244811    1.681878    1.887579
H       2.889289    0.288164   -0.197203
H       3.424802    3.930554   -1.482061
H       2.247197    3.287588   -2.648894
H       0.680902    3.940430   -0.780035
