18

C      -0.311363    1.543222   -0.091200
C      -0.009749    0.049883   -0.028268
C       0.944711   -0.482283   -1.111653
C       1.474321   -1.793507   -0.500425
O       1.165370   -1.759079    0.901275
C       0.702185   -0.458172    1.250139
C       1.804941    0.407671    1.690752
C       2.715445    1.106218    2.050214
H       0.606624    2.132875   -0.015799
H      -0.805148    1.797057   -1.034522
H      -0.975762    1.849910    0.723548
H      -0.949338   -0.513384   -0.083443
H       0.447332   -0.637648   -2.072128
H       1.760366    0.231059   -1.268161
H       0.984030   -2.678441   -0.922028
H       2.556258   -1.905833   -0.639830
H      -0.002216   -0.584195    2.080069
H       3.520667    1.715924    2.378810
