18

C      -0.054340    1.530143   -0.285691
C      -0.045895    0.070168    0.168952
N      -1.351235   -0.563813    0.041953
C      -1.940513   -1.104067   -1.050175
C      -3.184339   -1.503091   -0.610239
C      -4.284883   -2.186138   -1.363203
O      -3.804488   -3.193649   -2.244716
N      -3.282485   -1.191770    0.712818
N      -2.178674   -0.618444    1.104206
H       0.939453    1.967323   -0.151920
H      -0.325963    1.614877   -1.341903
H      -0.770674    2.108771    0.303116
H       0.673168   -0.517874   -0.409072
H       0.223647   -0.006622    1.224269
H      -1.450862   -1.169017   -2.007071
H      -5.011997   -2.574047   -0.636563
H      -4.816945   -1.475913   -2.005936
H      -3.344683   -3.847754   -1.707768
