19

O      -0.070105    1.480003   -0.039755
C       0.043432    0.056188    0.006723
C       0.669828   -0.447899    1.315608
C      -0.128320   -1.276108    2.002226
C      -1.429873   -1.449400    1.304540
C      -2.292388   -0.225155    1.120132
C      -1.326099   -0.597182    0.033711
C      -1.847860   -1.773360   -0.812056
C      -1.966415   -2.644190    0.486539
H       0.817403    1.849136    0.016925
H       0.619813   -0.294260   -0.865663
H       1.642948   -0.098468    1.652029
H       0.122556   -1.727522    2.957407
H      -3.358097   -0.344249    0.938680
H      -2.024957    0.641534    1.711872
H      -2.769473   -1.590152   -1.374433
H      -1.095225   -2.161290   -1.503002
H      -1.287166   -3.498876    0.482356
H      -2.966698   -2.996430    0.756988
