25

C       0.610186   -1.156784    1.237537
C       0.186928   -0.410913   -0.040585
C       1.232524   -0.584173   -1.150727
C      -1.272591   -0.717648   -0.431194
C      -2.253776    0.165346    0.318952
O      -2.045079    1.518774   -0.074071
C      -1.691474   -1.056898   -1.845744
C      -1.817904   -2.099319   -0.762445
C      -1.010649   -3.380087   -0.798935
H       1.566434   -0.773500    1.609829
H      -0.126508   -1.037802    2.038784
H       0.731621   -2.228993    1.056475
H       0.180822    0.660128    0.194862
H       1.348351   -1.625092   -1.469545
H       0.981523    0.013069   -2.031712
H       2.211235   -0.248727   -0.790723
H      -3.283837   -0.148814    0.090283
H      -2.109513    0.051195    1.405401
H      -2.538865    2.084267    0.526696
H      -2.585609   -0.587401   -2.242906
H      -0.911468   -1.209428   -2.583394
H      -2.832354   -2.264919   -0.403641
H      -0.004434   -3.230936   -1.196599
H      -0.913092   -3.825379    0.196961
H      -1.507536   -4.117030   -1.440658
