20

C      -0.060016    1.427659    0.041199
N      -0.009279   -0.027428   -0.059351
C       0.723369   -0.544075   -1.213560
C       2.239838   -0.585532   -0.992006
O       2.459220   -1.384834    0.166045
C       0.142302   -1.961612   -1.536394
N      -1.311430   -1.998780   -1.700595
C       0.788005   -2.521020   -2.730470
N       1.312329   -2.920534   -3.679799
H       0.924009    1.925138    0.053630
H      -0.627778    1.833867   -0.802851
H      -0.586426    1.704890    0.958930
H       0.414802   -0.416878    0.777597
H       0.514717    0.105740   -2.072104
H       2.741228   -1.006897   -1.873672
H       2.618564    0.437114   -0.844383
H       3.405580   -1.475164    0.305989
H       0.406203   -2.611199   -0.693014
H      -1.688596   -1.441227   -0.935631
H      -1.565787   -1.514582   -2.558394
