19

C       0.652403    1.412190    0.440579
C       0.159518    0.027988    0.115362
C       0.270153   -0.797396   -1.194469
N      -0.518177   -1.762154   -0.289174
C       0.491177   -1.325876    0.793977
C      -1.299380   -0.498142    0.117512
C      -2.104777   -0.565304    1.403772
N      -2.623102   -1.797065    1.656365
O      -2.293206    0.415390    2.099985
H       1.746514    1.458520    0.418931
H       0.268421    2.142300   -0.279902
H       0.307232    1.710293    1.434723
H      -0.293672   -0.459557   -2.069082
H       1.253966   -1.181727   -1.477650
H       1.490632   -1.742221    0.640663
H       0.148415   -1.497719    1.816724
H      -1.946668   -0.128566   -0.686839
H      -2.356530   -2.582200    1.083892
H      -3.164975   -1.941448    2.492621
