23

C      -0.789537    1.419561   -0.541483
C      -0.304223   -0.034644   -0.574859
C       0.756727   -0.310953   -1.687179
C       2.234895   -0.326245   -1.183189
C       2.983141    0.986294   -1.445346
C       2.241375   -0.661767    0.311650
C       1.165935   -1.701405    0.687332
C       0.287216   -0.437344    0.779834
O       1.481841    0.364424    1.015645
H       0.032726    2.095960   -0.293298
H      -1.202494    1.717777   -1.510320
H      -1.573449    1.556156    0.212214
H      -1.172740   -0.679983   -0.765022
H       0.537053   -1.283804   -2.137756
H       0.647331    0.420576   -2.494445
H       2.765316   -1.132244   -1.708514
H       2.525521    1.809673   -0.890497
H       4.030323    0.912586   -1.130366
H       2.971982    1.238382   -2.510446
H       3.251848   -0.771698    0.717783
H       0.903491   -2.475812   -0.036879
H       1.349782   -2.144669    1.667168
H      -0.431818   -0.348653    1.600326
