23

C      -1.637046    1.013061   -0.716822
C      -0.214405    0.677333   -0.253575
C       0.518953   -0.302476   -1.165175
C       1.093908    0.256965   -2.460774
C       2.007165   -0.123730   -1.322391
O       2.624532    0.872523   -0.555105
C      -0.074751   -1.687451   -1.188625
C       0.708374   -2.951430   -1.442325
C       0.172411   -2.662408   -0.062249
H      -1.634558    1.437244   -1.726824
H      -2.283502    0.129740   -0.729307
H      -2.098486    1.746083   -0.047530
H       0.375175    1.594418   -0.177409
H      -0.250531    0.252447    0.757586
H       1.088077   -0.367804   -3.347881
H       0.956115    1.317936   -2.645798
H       2.616968   -1.016419   -1.452307
H       3.286797    1.299488   -1.107997
H      -1.083484   -1.706115   -1.594123
H       0.229449   -3.727598   -2.029513
H       1.781134   -2.895699   -1.587702
H       0.892234   -2.369689    0.695207
H      -0.655590   -3.253806    0.312817
