19

C       0.170394    1.400548   -0.169941
C       1.436026    0.585149    0.053453
C       1.977626    0.415494    1.453053
C       0.710176   -0.030114    2.236251
O      -0.198907   -0.619550    1.291218
C       0.123056   -0.107753    0.028635
C       0.148991   -1.020438   -1.174420
C       1.354787   -0.457317   -1.978968
O       2.216846    0.221758   -1.050192
H      -0.185234    2.032687    0.636423
H      -0.012983    1.796445   -1.162878
H       2.731190   -0.377601    1.426879
H       2.430528    1.307115    1.895110
H       0.920378   -0.773585    3.009792
H       0.231796    0.832405    2.720020
H       0.344519   -2.037015   -0.819605
H      -0.764073   -1.034676   -1.775780
H       1.941592   -1.233933   -2.476783
H       1.010802    0.248568   -2.747232
