14

O      -0.173319   -0.079031    0.123578
C      -0.039941    1.110005    0.143260
O      -1.107262    2.023873    0.099325
C      -0.633977    3.319587    0.283409
C       0.701714    3.266971    0.304616
C       2.088356    3.647232    0.751659
C       2.428946    2.787893    1.964809
C       2.437488    2.152759    0.605789
N       1.068065    1.928785    0.125069
H      -1.372982    4.096983    0.360958
H       2.663241    4.512710    0.458284
H       3.411564    2.973156    2.389229
H       1.658620    2.530692    2.684500
H       3.281044    1.666634    0.137134
