17

O       0.007236   -0.127140   -0.039856
C       0.059079    1.055257    0.194685
C       1.301448    1.871138    0.074851
C       2.689026    1.285690   -0.333809
C       3.011170    2.769834   -0.671541
C       1.522538    2.901393   -1.105120
C       2.998430    3.429321    0.719985
C       1.702195    2.777785    1.246947
O       1.139936    2.941267    2.294118
H      -0.843220    1.622053    0.511673
H       3.279565    0.786772    0.438586
H       2.600020    0.647404   -1.214013
H       3.819861    3.039302   -1.348757
H       1.314553    2.439303   -2.072049
H       1.037630    3.878654   -1.032512
H       3.854428    3.162589    1.347411
H       2.911526    4.519979    0.703033
