18

C       0.297462    1.578392   -0.046619
C       0.743176    0.119519   -0.002818
C       0.374716   -0.583660    1.284496
O      -0.277758   -0.056565    2.161196
C       0.855596   -2.011833    1.480429
C       1.494311   -2.252444    2.831678
N       0.167332   -2.763669    2.557136
C       1.293355   -2.761887    0.334777
C       1.672215   -3.373884   -0.628246
H       0.759823    2.154780    0.759027
H       0.574287    2.034579   -1.000804
H      -0.785325    1.659482    0.075944
H       0.307463   -0.462082   -0.826188
H       1.827488    0.017754   -0.144056
H       2.282416   -2.996873    2.889018
H       1.602113   -1.383951    3.475650
H      -0.515204   -2.112880    2.951475
H       1.998417   -3.924583   -1.475733
