19

C      -0.113828    1.471508    0.211483
C       0.045512   -0.014574    0.046963
C       0.859470   -0.776630   -1.051540
C       0.228124   -1.888775   -0.163898
C       0.656593   -1.024142    1.074271
C       0.305470   -3.366908   -0.274146
O      -0.673787   -4.076765   -0.224441
C      -1.082327   -1.057973   -0.204487
O      -2.023551   -1.221430    0.820075
H       0.850545    1.956122    0.397636
H      -0.549952    1.921299   -0.687243
H      -0.775366    1.695875    1.054476
H       0.493794   -0.707376   -2.080524
H       1.945289   -0.671490   -1.001035
H       1.731161   -0.942908    1.257036
H       0.087987   -1.193014    1.987517
H       1.323254   -3.804758   -0.384163
H      -1.561530   -1.001141   -1.192072
H      -2.364232   -2.120355    0.747022
