16

N      -0.331864    1.303077    0.100630
C      -0.171206    0.055003    0.043858
C      -1.194579   -0.992366    0.439867
C      -0.663985   -2.289467   -0.164555
C      -0.959862   -2.550822   -1.676640
C       0.544224   -2.393478   -1.966096
O       1.237482   -2.583138   -2.918249
C       0.830614   -1.969585   -0.497087
O       0.988803   -0.556271   -0.373723
H       0.508395    1.792717   -0.211002
H      -1.233667   -1.047975    1.532762
H      -2.189122   -0.707810    0.092220
H      -0.817840   -3.164752    0.464794
H      -1.365492   -3.532272   -1.935212
H      -1.577699   -1.786587   -2.160317
H       1.645916   -2.474395    0.026731
