19

C       0.244380    1.320779    0.200888
O       0.396144   -0.094389    0.040801
C       0.324651   -0.541124   -1.230555
O       0.140514    0.186941   -2.179617
C       0.496628   -2.013650   -1.279023
C      -0.091133   -2.777322   -2.461939
C       1.394412   -2.667129   -2.320763
C       2.221041   -1.861540   -3.294127
O       2.059183   -3.780224   -1.777740
H       1.030710    1.857385   -0.336224
H      -0.725791    1.651251   -0.178848
H       0.318954    1.507319    1.272306
H       0.499683   -2.509680   -0.317398
H      -0.552555   -3.732335   -2.239814
H      -0.579491   -2.168446   -3.214989
H       1.693936   -0.959915   -3.608051
H       3.173062   -1.576849   -2.835251
H       2.441497   -2.463021   -4.184746
H       2.238608   -4.392125   -2.500796
