22

C      -0.219573    1.507808    0.096641
C       0.002389   -0.007946    0.049136
C       0.686887   -0.428589   -1.278393
C       0.424568   -1.876313   -1.709481
C       0.900108   -2.942503   -0.717447
C       0.299440   -2.811659    0.681329
O       0.933640   -1.814748    1.487235
C       0.802412   -0.475722    1.252443
N       1.368947    0.353958    2.026234
H       0.730584    2.041408    0.017824
H      -0.865604    1.813817   -0.732641
H      -0.683722    1.810557    1.037096
H      -0.982263   -0.495528    0.086393
H       0.320863    0.236107   -2.068743
H       1.765433   -0.242556   -1.197424
H      -0.655078   -2.004096   -1.871593
H       0.900092   -2.053057   -2.681233
H       0.638663   -3.935035   -1.104688
H       1.992639   -2.921527   -0.618624
H      -0.783801   -2.638313    0.632625
H       0.456842   -3.735068    1.244711
H       1.871252   -0.147649    2.761728
