20

C       0.033154    1.505384    0.061805
C      -0.053113   -0.017743   -0.022594
C      -1.522673   -0.470139   -0.043341
C       0.709246   -0.543379   -1.258380
C       1.072070   -1.997342   -1.114460
C       1.051529   -2.610324    0.065623
C       0.680009   -1.882875    1.324713
O       0.605413   -0.479661    1.168223
H       1.074885    1.816588    0.179160
H      -0.370303    1.966464   -0.845089
H      -0.532819    1.875168    0.921754
H      -2.061613    0.022683   -0.858467
H      -1.613362   -1.549907   -0.189876
H      -2.009119   -0.203660    0.899718
H       0.099636   -0.392490   -2.158425
H       1.619328    0.053946   -1.407469
H       1.357397   -2.537981   -2.013162
H       1.293896   -3.665281    0.163254
H      -0.267079   -2.289025    1.724926
H       1.437102   -2.054220    2.100563
