16

O       0.070853    1.462673   -0.051741
C       0.035698    0.077744   -0.022501
C       0.992281   -0.515144   -1.024422
O       1.671161    0.199301   -1.728159
C      -0.015283   -0.606947    1.365834
C      -1.516452   -0.257084    1.597180
C      -1.788685   -1.732542    1.873134
N      -0.735446   -1.847903    0.772249
C      -1.352793   -0.599634    0.085464
H       0.726180    1.687918   -0.732866
H       1.036578   -1.616200   -1.077584
H       0.773659   -0.721605    2.111095
H      -1.936435    0.647836    2.041063
H      -1.462389   -2.150823    2.830742
H      -2.761981   -2.143713    1.586645
H      -2.132421   -0.705727   -0.670786
