21

O       0.050519    1.394503    0.325674
C       0.027731    0.008696    0.076939
C      -1.401515   -0.488255    0.133008
C      -2.311834    0.154858   -0.907857
C      -2.263472   -0.360140   -2.365711
O      -3.676946   -0.644710   -2.360943
C      -3.782880   -0.313570   -0.961212
C       1.016362   -0.588382   -0.890005
C       1.145536   -0.849392    0.604396
H       0.894679    1.751099    0.034593
H      -1.408066   -1.578558    0.017521
H      -1.796574   -0.273295    1.134994
H      -2.217512    1.240180   -0.847227
H      -1.993120    0.367198   -3.140308
H      -1.665923   -1.271183   -2.513614
H      -4.004352   -1.198534   -0.346829
H      -4.551239    0.446214   -0.774750
H       0.702696   -1.403185   -1.533606
H       1.744388    0.074626   -1.349603
H       1.949231   -0.346837    1.132676
H       0.917962   -1.842394    0.977655
