21

C      -0.114021    1.550716   -0.125836
C       0.046247    0.030743   -0.016861
C       0.760295   -0.482331    1.258117
C       2.222503   -0.003722    1.327648
C       0.016563   -0.129002    2.542756
C      -0.315126   -1.198351    3.270546
C       0.088871   -2.446080    2.557963
O      -0.569587   -2.604996    1.275100
C       0.731194   -2.019220    1.305309
H       0.850132    2.068962   -0.124928
H      -0.623481    1.811924   -1.058539
H      -0.712496    1.955922    0.696338
H      -0.937049   -0.447611   -0.058846
H       0.607970   -0.333621   -0.887278
H       2.284946    1.081902    1.444297
H       2.740417   -0.457471    2.178512
H       2.763115   -0.276086    0.413339
H      -0.215181    0.897641    2.804227
H      -0.833937   -1.189443    4.221299
H       0.311288   -3.374370    3.075039
H       1.512480   -2.587599    0.804237
