20

C       0.087821    1.524351   -0.164728
C      -0.048062    0.006578   -0.036819
C       0.381209   -0.809346   -1.290836
C       1.735913   -1.399815   -0.880106
O       2.741717   -0.381255   -1.022033
C       3.054343    0.198869    0.238389
C       2.159412   -0.461021    1.263721
C       1.567136   -1.656917    0.621638
N       0.694696   -0.585082    1.114326
H       1.047795    1.819519   -0.592836
H      -0.696818    1.911173   -0.822821
H      -0.026423    2.004639    0.811772
H      -1.099290   -0.207934    0.184547
H      -0.335569   -1.615121   -1.484194
H       0.468800   -0.205547   -2.197420
H       2.041886   -2.271275   -1.465024
H       4.102468   -0.012266    0.500586
H       2.941655    1.287631    0.182203
H       2.490096   -0.448400    2.298811
H       1.501441   -2.654408    1.043683
