18

O       0.354950    0.357425   -0.813774
C       0.166673    1.365838   -0.189499
C      -1.136854    2.166049   -0.134199
O      -0.927860    3.217647    0.786907
C       0.483100    3.470326    0.930347
C       1.162739    2.112871    0.698216
C       0.950210    4.544852   -0.027830
C       0.840601    5.970452    0.353439
N       2.162913    5.320330    0.281292
H      -1.378225    2.532951   -1.144170
H      -1.969458    1.539922    0.203888
H       0.622266    3.832227    1.955656
H       1.263958    1.552660    1.634586
H       2.146946    2.168977    0.229233
H       0.865745    4.283307   -1.082272
H       0.661095    6.725634   -0.405767
H       0.423289    6.201528    1.330452
H       2.486833    5.097707    1.221073
