18

C       0.023223    1.513402    0.047031
C       0.006952   -0.003389   -0.020531
C       0.663749   -0.635496   -1.269838
C       0.148162   -2.064915   -1.088020
O       0.835253   -2.647190    0.066571
C       1.009216   -1.789076    1.100674
N       0.680088   -0.564840    1.181428
C      -1.300402   -1.832581   -0.700368
C      -1.377404   -0.656223   -0.073260
H       1.051878    1.886350    0.051429
H      -0.502544    1.948567   -0.809212
H      -0.458057    1.857231    0.967540
H       0.271442   -0.202963   -2.193633
H       1.754406   -0.562277   -1.262827
H       0.334755   -2.761135   -1.905016
H       1.496148   -2.295294    1.932680
H      -2.082157   -2.574351   -0.803848
H      -2.244057   -0.240975    0.428161
