21

C       0.139606    1.602437    0.082887
C      -0.018010    0.079119    0.019218
C       0.613038   -0.534972   -1.238380
C       0.612158   -2.077702   -1.348056
C       1.027161   -2.291229   -2.831641
C      -0.374495   -1.653663   -3.117074
C      -0.838259   -2.398160   -1.818908
C      -0.158804   -0.256750   -2.554356
O      -0.519096    0.800685   -3.003058
H       1.198155    1.884699    0.112498
H      -0.306483    2.074781   -0.795391
H      -0.338621    2.008530    0.979540
H       0.449556   -0.380038    0.900115
H      -1.082142   -0.181313    0.069111
H       1.635375   -0.146019   -1.342107
H       1.084775   -2.630245   -0.535874
H       1.916200   -1.773047   -3.202750
H       1.054490   -3.344703   -3.118921
H      -0.891489   -1.729773   -4.071250
H      -0.992461   -3.463664   -2.003037
H      -1.682691   -1.989371   -1.258876
