17

O      -0.206072    0.065986   -0.347188
C      -0.050309    1.187026    0.069281
C       1.266464    1.927574    0.024295
C       2.535580    1.154066   -0.486379
C       2.657425    2.127300   -1.662224
C       1.406850    2.101251   -2.486629
C       1.408562    2.882562   -1.200111
C       1.550470    2.664923    1.310209
O       0.849242    2.638892    2.289196
H      -0.898678    1.776525    0.473993
H       3.364408    1.214540    0.222947
H       2.345437    0.107635   -0.732984
H       3.586183    2.539008   -2.035538
H       1.423992    2.719500   -3.378206
H       0.825084    1.188677   -2.580222
H       1.207567    3.946323   -1.165871
H       2.493562    3.258412    1.287888
