18

C       0.069045    1.501630    0.022814
C       0.031238   -0.006869    0.013015
N      -0.053208   -0.614568   -1.174588
C      -0.087689   -1.947800   -1.199959
C      -0.040120   -2.733560   -0.054063
C       0.047923   -2.128101    1.197065
C       0.103683   -2.907343    2.481828
C       0.083433   -0.730388    1.213277
O       0.169765   -0.120595    2.432679
H       0.992995    1.888818    0.473608
H       0.017788    1.862769   -1.004793
H      -0.775874    1.932555    0.577126
H      -0.156373   -2.408255   -2.182102
H      -0.071356   -3.815796   -0.131601
H       1.020118   -2.683830    3.038455
H      -0.730303   -2.641385    3.140157
H       0.066461   -3.982188    2.290228
H       0.185256    0.833657    2.309732
