17

N      -0.111164    1.284908   -0.003990
C      -0.104424    0.040241   -0.196337
O      -1.082893   -0.726527    0.351022
C      -0.970087   -2.095939    0.158575
C      -1.134096   -2.782179   -1.167409
C      -2.061146   -3.105367   -0.011600
N      -1.529954   -3.980131    1.112661
C      -0.141150   -4.404446    0.836284
C      -0.388066   -3.010682    1.259089
H       0.675051    1.715483   -0.486445
H       0.617148   -0.538884   -0.785384
H      -1.631727   -2.155804   -1.902366
H      -0.409218   -3.465613   -1.595686
H      -3.134582   -2.995021   -0.083102
H       0.226126   -5.087350    1.597609
H       0.179272   -4.656091   -0.167883
H      -0.120429   -2.615681    2.233802
