16

C      -0.052231    1.571144    0.053303
C       0.025200    0.039516    0.027181
N       0.782818   -0.484089   -1.087344
C       1.856346   -1.270277   -0.723349
O       2.638409   -1.819121   -1.469948
C       1.824984   -1.283632    0.766801
C       0.790610   -0.548794    1.209314
C       0.392811   -0.303228    2.540328
C       0.023347   -0.072975    3.664020
H       0.951991    2.003726    0.053776
H      -0.592099    1.942568   -0.822997
H      -0.581938    1.906745    0.949136
H      -0.997642   -0.367077    0.033289
H       0.564281   -0.302969   -2.052456
H       2.549182   -1.822250    1.359818
H      -0.289223    0.119427    4.660877
