19

C       0.040069    1.526313   -0.221367
O       1.445643    1.542757    0.217718
C       1.242634    0.241231    0.793265
C       0.477914    0.115029    2.132033
C      -0.399133   -0.844002    1.277001
C       0.642898   -1.985319    1.039045
C       1.665584   -1.154692    0.200893
C       0.784794   -0.836950   -1.033596
C      -0.041749   -0.001850   -0.013208
H      -0.587301    2.141771    0.432841
H      -0.056406    1.876474   -1.253489
H       0.971011   -0.296991    3.016140
H      -0.008017    1.057743    2.388111
H      -1.405658   -1.145445    1.567955
H       1.042576   -2.360647    1.984624
H       0.254085   -2.830032    0.464206
H       2.684868   -1.537662    0.137371
H       1.273272   -0.181549   -1.756588
H       0.316953   -1.677703   -1.553175
