23

C       0.292495    1.524827    0.232652
C      -0.157878    0.105032   -0.128710
C       0.610673   -0.484462   -1.314393
C       1.986443   -1.102131   -1.062408
C       0.844101   -2.003386   -1.446720
C       0.267949   -2.946437   -0.404423
C       0.853125   -2.608047   -2.839405
C       0.435691    0.270527   -2.529666
C       0.254200    0.928236   -3.521918
H       1.351636    1.542110    0.510791
H       0.158105    2.206396   -0.611862
H      -0.284995    1.910997    1.078234
H      -0.034383   -0.542121    0.743605
H      -1.228461    0.108009   -0.366658
H       2.767328   -0.910805   -1.790150
H       2.326599   -1.114737   -0.031108
H       0.361531   -2.567853    0.615105
H      -0.792124   -3.149791   -0.595003
H       0.798034   -3.905247   -0.443523
H       1.462225   -3.519382   -2.850265
H      -0.160401   -2.881426   -3.154953
H       1.256091   -1.917517   -3.582217
H       0.104596    1.502076   -4.402445
