13

N      -0.149685    1.233584   -0.002418
C       0.008074   -0.008386    0.015725
C       1.137354   -1.039925    0.088909
C       0.013660   -2.083584    0.040521
C      -1.003579   -1.825541    1.084687
N      -1.059546   -0.990456   -0.138053
C       0.038427   -3.266134   -0.762998
N       0.097365   -4.233277   -1.394523
H       0.740148    1.724025    0.097571
H       1.755930   -1.035851   -0.811331
H       1.778488   -1.044478    0.973793
H      -1.836521   -2.516338    1.154968
H      -0.695298   -1.368681    2.021851
