18

N      -0.118297    1.327120   -0.027356
C       0.056230   -0.025788    0.014031
O       1.158454   -0.540101    0.042672
C      -1.236830   -0.834173    0.014704
C      -0.966065   -2.330585   -0.006135
O      -2.218971   -2.988878    0.007745
C      -2.083325   -4.395658   -0.007560
C      -3.397769   -5.024597    0.008440
C      -4.467986   -5.568916    0.021169
H       0.697685    1.915288    0.009368
H      -1.027055    1.754800   -0.005523
H      -1.827575   -0.580848    0.903373
H      -1.849377   -0.556646   -0.851173
H      -0.388645   -2.602209   -0.902594
H      -0.358311   -2.619946    0.863830
H      -1.527671   -4.720931   -0.904040
H      -1.498204   -4.737266    0.863715
H      -5.416958   -6.045279    0.032527
