20

C      -0.108335    1.501765    0.035073
C       1.284428    2.174166    0.017054
C       2.147523    1.821024    1.196396
C       3.118820    0.905879    1.238376
C       3.538929    0.010931    0.096930
O       2.539455   -1.004915   -0.163085
C       1.767372   -0.817337   -1.278986
N       0.562215   -0.450815   -1.296320
C      -0.066260   -0.035029   -0.046786
H      -0.643904    1.779506    0.950983
H      -0.687561    1.890762   -0.809673
H       1.783925    1.912699   -0.921606
H       1.135294    3.260418   -0.001260
H       1.921207    2.358334    2.116733
H       3.635946    0.739226    2.179820
H       3.723406    0.581346   -0.821691
H       4.460231   -0.520051    0.350627
H       2.274028   -1.059543   -2.217740
H       0.447729   -0.437208    0.833240
H      -1.094852   -0.410321   -0.049126
