19

O      -0.925257    1.298514    0.433562
C      -0.153715    0.132320    0.145189
C       0.576635   -0.422534    1.394238
C      -0.282650   -1.643071    1.848874
N      -1.537255   -1.607160    1.077242
C      -2.627819   -0.897815    1.752265
C      -3.112133   -1.654981    2.912939
N      -3.485185   -2.229855    3.843032
C      -1.151839   -0.987580   -0.195997
H      -0.326131    1.986555    0.740374
H       0.537396    0.333040   -0.684569
H       1.600290   -0.726922    1.160091
H       0.634705    0.352410    2.164108
H       0.241311   -2.575206    1.610723
H      -0.491353   -1.656478    2.920541
H      -2.369273    0.120202    2.082996
H      -3.459655   -0.794198    1.047456
H      -2.017772   -0.611864   -0.744951
H      -0.652289   -1.744906   -0.812778
