19

C      -0.069457    1.582761    0.128158
C       0.015691    0.049402    0.051465
N       0.713305   -0.462596    1.240670
C      -1.363157   -0.498267   -0.032441
N      -2.423540   -0.959152   -0.022272
C       0.793599   -0.431860   -1.201383
O       0.115288    0.036382   -2.343966
C       2.258674    0.021305   -1.244190
O       2.813578   -0.324865   -2.513532
H       0.914545    1.995640    0.360907
H      -0.420844    1.982879   -0.823452
H      -0.764813    1.886587    0.915418
H       0.263827   -0.104944    2.078853
H       0.628516   -1.475065    1.285193
H       0.785401   -1.538779   -1.178828
H       0.760712   -0.008303   -3.063031
H       2.321887    1.110897   -1.189365
H       2.827842   -0.403122   -0.411630
H       2.976284   -1.274382   -2.521006
