20

C       0.006245    1.470048    0.043163
C      -0.045267   -0.024907   -0.036453
C      -0.092839   -0.964158    1.186435
C       1.017860   -1.063680    0.179589
N       0.201601   -2.074721   -0.610437
C      -0.808525   -2.164787    0.554463
C      -1.925708   -1.641206   -0.360581
C      -0.748970   -0.937307   -1.070507
C      -0.761358   -0.551908   -2.523219
H       0.664317    1.796472    0.855706
H       0.388392    1.909066   -0.885481
H      -0.985623    1.898025    0.231783
H      -0.083600   -0.599321    2.205876
H       2.098276   -1.030755    0.251378
H      -0.880046   -3.104242    1.103153
H      -2.345440   -2.437750   -0.982141
H      -2.723154   -1.032525    0.073868
H      -1.449065    0.283164   -2.701173
H       0.237278   -0.243220   -2.851419
H      -1.076731   -1.395184   -3.144819
