23

C      -0.652275    1.288111    0.174326
C       0.132497    0.001370    0.005812
C       0.902416   -0.207218   -1.317824
C       2.165764   -0.210407   -0.427069
O       1.367738    0.005858    0.764910
C       2.974697   -1.484646   -0.358963
C       3.966032   -1.791982   -1.519842
C       4.981184   -2.309152   -0.464391
C       4.176469   -1.552010    0.626388
H      -0.055594    2.151717   -0.136530
H      -1.567762    1.261596   -0.427552
H      -0.935766    1.427259    1.222387
H      -0.489752   -0.856492    0.296505
H       0.701614   -1.144471   -1.840821
H       0.828969    0.621643   -2.024714
H       2.839538    0.642959   -0.595839
H       2.299306   -2.332041   -0.193464
H       3.638900   -2.482239   -2.301118
H       4.315920   -0.870145   -1.997420
H       4.914847   -3.393653   -0.338126
H       6.031892   -2.041951   -0.599541
H       4.588019   -0.555150    0.816061
H       4.016355   -2.047329    1.586000
