19

C      -0.022909    1.340077    0.042442
O      -0.050411   -0.085212   -0.074135
C       0.602048   -0.581561   -1.118746
N       1.240268    0.087519   -1.998104
C       1.783619   -0.881421   -2.965184
C       3.267257   -0.647506   -3.249006
C       1.427226   -2.254751   -2.370820
C       1.890561   -2.581749   -1.002269
N       0.533385   -2.005857   -1.216309
H       1.005141    1.698144    0.146763
H      -0.466087    1.805631   -0.842077
H      -0.604630    1.575783    0.933933
H       1.235244   -0.764204   -3.910595
H       3.864678   -0.753602   -2.338685
H       3.637245   -1.364078   -3.989643
H       3.421476    0.362146   -3.638842
H       1.130605   -3.059098   -3.035941
H       1.887437   -3.612542   -0.663016
H       2.631196   -1.941698   -0.531724
