20

C      -0.236159    1.575616   -0.082981
C      -0.016418    0.078699    0.017613
C       1.283366   -0.657271   -0.233399
C       2.622483    0.027033   -0.387571
O       2.833493    1.156258    0.469454
C       2.372248    1.176372    1.753389
N       2.661614    2.135399    2.529678
C       1.494996    0.039711    2.225847
C       0.682604   -0.653135    1.148010
H       0.589750    2.168581    0.307326
H      -0.384347    1.866579   -1.129121
H      -1.140237    1.860548    0.466106
H      -0.873053   -0.478597   -0.356559
H       1.226467   -1.569968   -0.820974
H       3.423378   -0.705480   -0.209198
H       2.759846    0.421412   -1.399504
H       3.283943    2.791967    2.053305
H       2.153186   -0.710928    2.685644
H       0.873330    0.434327    3.033094
H       0.201557   -1.563252    1.494291
