12

O      -0.007251    0.054938   -0.642865
C      -0.017127    1.194717   -0.213836
C      -1.295336    1.858519    0.158338
N      -1.596016    3.108633    0.218437
C      -0.737788    4.145303   -0.019659
C       0.627610    4.163951   -0.037720
N       1.519818    3.151175    0.177178
C       1.251900    1.893297    0.124581
H      -2.086240    1.144091    0.397568
H      -1.238175    5.104350   -0.132782
H       1.098460    5.136263   -0.163676
H       2.068078    1.200812    0.342495
