20

C       0.055666    1.408020   -0.061064
O       0.035055   -0.001627   -0.024729
C      -1.202344   -0.578919    0.003448
C      -1.375584   -1.946185    0.036986
C      -0.372385   -3.047299    0.049440
N      -2.743313   -2.155745    0.058599
C      -3.426012   -0.967370    0.039657
C      -4.917547   -0.906515    0.057016
C      -2.485778    0.042872    0.004871
H       1.106126    1.705853   -0.081484
H      -0.445830    1.799024   -0.957503
H      -0.423973    1.844736    0.826203
H      -0.445179   -3.674994    0.947751
H      -0.463407   -3.711810   -0.820301
H       0.629972   -2.613782    0.030041
H      -3.175117   -3.063178    0.085033
H      -5.343639   -1.367102    0.957856
H      -5.246773    0.134939    0.034959
H      -5.365908   -1.411575   -0.808468
H      -2.705339    1.098304   -0.016771
