16

C      -0.261826    1.576414   -0.044812
C       0.035724    0.066806    0.031360
C       0.796098   -0.441586   -1.152268
C       2.136195   -0.733470   -1.375093
C       3.242927   -0.648070   -0.419566
O       4.398274   -0.902085   -0.659471
N       2.287266   -1.138972   -2.679683
N       1.141937   -1.114991   -3.268800
N       0.229794   -0.690778   -2.351645
H       0.664962    2.153903   -0.100038
H      -0.861302    1.821138   -0.926937
H      -0.815848    1.898552    0.841015
H       0.610799   -0.149105    0.935822
H      -0.903736   -0.491234    0.124633
H       2.929104   -0.315060    0.596552
H      -0.738722   -0.614344   -2.622691
