19

O       0.011991    1.432767   -0.054972
C       0.053992    0.007517   -0.007353
C       0.750437   -0.574905    1.252314
C      -0.383732   -0.969138    2.218628
O      -0.830163    0.157012    2.971954
C      -1.857611    0.842996    2.251810
C      -2.317331   -0.102093    1.152455
C      -1.365566   -0.544944    0.052551
C      -1.548101   -1.381534    1.300174
H       0.919253    1.753484   -0.071396
H       0.549603   -0.366420   -0.915084
H       1.307469   -1.475095    0.967165
H       1.451672    0.127602    1.712649
H      -0.081433   -1.739344    2.932774
H      -2.680151    1.054707    2.946388
H      -1.473581    1.787043    1.854446
H      -3.372930   -0.118456    0.906128
H      -1.830854   -0.842322   -0.880586
H      -1.988606   -2.369752    1.324790
