27

C       0.156161    1.559957   -0.085823
C      -0.021355    0.043311    0.038700
C      -1.475165   -0.455914   -0.076193
C      -2.076881   -0.165060   -1.458252
C      -1.534476   -1.956420    0.281243
C      -2.916560   -2.596541    0.340416
C      -3.904625   -1.942155    1.289500
C      -3.470633   -3.247533   -0.907644
C      -2.968916   -4.103463    0.230401
H       1.200634    1.844701    0.076674
H      -0.131706    1.928773   -1.074905
H      -0.450729    2.091805    0.656009
H       0.589775   -0.460171   -0.723919
H       0.381151   -0.280066    1.007418
H      -2.065389    0.093696    0.671680
H      -3.112924   -0.507026   -1.523638
H      -2.067252    0.904941   -1.685025
H      -1.509298   -0.676726   -2.245671
H      -0.918024   -2.513142   -0.438480
H      -1.051446   -2.092723    1.259684
H      -4.156330   -0.922203    0.978812
H      -4.839312   -2.509881    1.336816
H      -3.497723   -1.887762    2.306721
H      -4.541343   -3.201328   -1.079750
H      -2.877362   -3.210344   -1.814925
H      -2.035577   -4.639586    0.091246
H      -3.699112   -4.635422    0.831365
