12

N       0.153644   -3.688533   -0.019562
C       0.083088   -2.527887   -0.012296
C       0.010582   -1.167924   -0.003915
C      -0.050918    0.042188    0.003532
C      -0.092915    1.446732    0.011845
N      -1.178472    2.209704    0.030136
C      -0.722268    3.493150    0.031323
C       0.655826    3.523481    0.013587
N       1.046715    2.215934    0.001290
H      -1.401905    4.331274    0.044775
H       1.366580    4.333062    0.008817
H       1.992158    1.869110   -0.012863
