16

N       0.128675    1.399378   -0.051277
C      -0.062475    0.025735   -0.023800
C      -1.168745   -0.770554    0.010035
C      -0.676973   -2.122125   -0.091204
C       0.674373   -2.036183   -0.166872
O       1.063393   -0.716647   -0.128724
C      -1.476240   -3.363521   -0.102990
C      -1.521588   -4.258905   -1.275390
O      -0.745513   -4.592466   -0.125670
H       1.009501    1.677369    0.362799
H      -0.638981    1.910115    0.361981
H      -2.195246   -0.449484    0.086608
H       1.463472   -2.764177   -0.218828
H      -2.342974   -3.372482    0.559872
H      -2.396419   -4.885525   -1.447070
H      -0.950729   -3.987191   -2.161414
