9

N       0.071944   -1.127119   -0.004351
C       0.018954    0.027062    0.002676
C      -0.000293    1.446147    0.010794
N      -1.109917    2.144834    0.028447
O      -0.719489    3.443412    0.030792
N       0.629452    3.580686    0.014753
C       1.105099    2.358665    0.001997
C       2.494689    2.070712   -0.016945
N       3.617960    1.800495   -0.032463
