16

C      -0.254332    1.441616    0.075293
N       0.050060    0.013463   -0.011780
C       0.739426   -0.384355   -1.154963
C       0.352510   -0.774166   -2.535068
O       1.385614   -0.055433   -3.202444
C       2.109577   -0.027810   -1.948767
C       2.460116   -1.509980   -1.689212
O       3.464438   -2.085998   -1.381546
C       0.999521   -1.847191   -1.650223
H       0.638334    2.085655    0.073363
H      -0.880311    1.727358   -0.774920
H      -0.818421    1.630361    0.992171
H       0.484334   -0.332294    0.836069
H      -0.605189   -0.910692   -3.020092
H       2.813157    0.793141   -1.840994
H       0.493471   -2.746852   -1.330052
