21

C      -0.012509    1.168965   -0.489675
O      -0.097554    0.100637    0.434022
C      -1.297133   -0.605086    0.327798
C      -1.554651   -1.651917   -0.727085
C      -0.262145   -2.426791   -1.015483
C      -0.205940   -2.893413    0.478943
C       1.069050   -2.718421    1.295754
C      -1.434644   -2.020442    0.771572
O      -2.446494   -2.415151    1.634603
H       0.959124    1.646385   -0.343650
H      -0.090922    0.814926   -1.527165
H      -0.804742    1.913519   -0.317977
H      -2.181895   -0.006182    0.559600
H      -2.431798   -1.618629   -1.362209
H      -0.392153   -3.250230   -1.719911
H       0.581329   -1.811439   -1.340619
H      -0.538896   -3.935731    0.527396
H       1.425868   -1.687541    1.248686
H       0.895759   -2.973522    2.347877
H       1.861821   -3.379132    0.927076
H      -2.315082   -1.971580    2.479548
