21

O       0.473077    1.209615   -0.447310
C       0.101722   -0.130424   -0.119923
C       0.688591   -0.550455    1.207447
C      -0.242105   -0.823432    2.122035
C      -1.641103   -0.714503    1.580026
C      -2.523466    0.432608    2.131580
C      -3.381994    0.827747    0.918746
C      -2.393448    0.775815   -0.262872
C      -1.436623   -0.394384    0.061966
H       0.408392    1.730940    0.360526
H       0.493466   -0.718927   -0.956179
H       1.760785   -0.546815    1.374651
H      -0.037324   -1.095242    3.153162
H      -2.180708   -1.661460    1.707053
H      -3.112406    0.141667    3.006373
H      -1.890119    1.277578    2.430698
H      -4.180231    0.088155    0.777242
H      -3.863438    1.804054    1.031739
H      -2.894830    0.651903   -1.226558
H      -1.824722    1.708385   -0.326208
H      -1.694033   -1.273028   -0.535001
