19

O       0.581151    0.627567   -0.844015
C      -0.029494   -0.324550   -0.013942
C       0.040074   -0.171707    1.532901
C      -1.467540   -0.594805    1.636152
C      -2.427451    0.618152    1.800563
C      -2.337307    0.897534    0.273351
C      -1.569955   -0.435378    0.054444
C      -1.758568   -1.815462    2.337298
C      -2.011089   -2.838081    2.920357
H       0.256780    1.499819   -0.596327
H       0.392936   -1.286708   -0.317748
H       0.750683   -0.821242    2.045247
H       0.207305    0.858810    1.863676
H      -3.427424    0.300743    2.103231
H      -2.087775    1.403401    2.481949
H      -3.299779    0.953440   -0.237422
H      -1.775263    1.797367    0.000770
H      -2.057921   -1.173480   -0.581823
H      -2.232477   -3.739413    3.435791
