15

N       0.049607    1.371000   -0.086915
C      -0.007394    0.002431   -0.034613
C      -1.228463   -0.682239   -0.069723
C      -1.130501   -2.065867   -0.066604
O      -2.254960   -2.804171   -0.106773
N       0.021624   -2.732455   -0.027658
C       1.122669   -1.965725    0.014733
N       2.318424   -2.624179    0.108175
N       1.174111   -0.630594    0.010583
H       0.934699    1.771907    0.180678
H      -0.769341    1.888974    0.184810
H      -2.185890   -0.182039   -0.112140
H      -1.962188   -3.726157   -0.092789
H       2.313576   -3.596873   -0.149157
H       3.138573   -2.088152   -0.121222
