19

C      -0.805654    1.099594   -0.458793
C      -0.267590   -0.306270   -0.187233
C       0.714360   -0.343170    0.995254
O       0.003465    0.069260    2.151401
C       0.821475    0.315510    3.276971
C       1.307345   -1.676132    1.161281
C       1.794316   -2.776442    1.296818
C       2.336967   -4.015500    1.445346
C       2.820753   -5.113926    1.577812
H       0.002869    1.788636   -0.727969
H      -1.520374    1.085755   -1.286723
H      -1.308824    1.497847    0.425041
H      -1.087829   -0.995692    0.039142
H       0.248824   -0.700824   -1.068506
H       1.534395    0.371469    0.797466
H       1.351905   -0.589490    3.602479
H       1.564101    1.101839    3.070890
H       0.162140    0.651666    4.080186
H       3.243057   -6.081154    1.693026
