25

C      -0.155957    1.424807    0.066682
O       0.137304    0.052572   -0.037258
C       0.685821   -0.536221    1.137743
C      -0.387552   -0.777053    2.204128
C       1.350886   -1.845270    0.704353
C       2.485212   -1.688492   -0.322028
C       3.710781   -0.960911    0.246447
C       2.878274   -3.062105   -0.868122
O       3.834940   -2.882622   -1.903905
H       0.726146    2.007776    0.376049
H      -0.468763    1.763228   -0.924632
H      -0.970144    1.634837    0.775967
H       1.448018    0.144316    1.552683
H      -1.163302   -1.445777    1.817389
H       0.053047   -1.235446    3.095269
H      -0.864929    0.156520    2.515412
H       1.729085   -2.353704    1.601298
H       0.565475   -2.487973    0.284909
H       2.093814   -1.108724   -1.165674
H       4.085155   -1.467087    1.145672
H       4.515688   -0.946948   -0.491483
H       3.480659    0.073502    0.517413
H       3.290705   -3.680495   -0.052031
H       1.981178   -3.576875   -1.248093
H       4.122279   -3.750248   -2.201438
