22

C      -1.565261   -0.591965   -0.177731
C      -0.136962   -0.054678   -0.040825
C       0.605064   -0.475613    1.256371
C      -0.146126   -0.079688    2.536589
C       0.687858   -0.302431    3.798559
O      -0.491175    1.298128    2.386636
C       0.859712   -1.983328    1.237293
N       2.039778   -2.360645    0.661807
O       0.069094   -2.800271    1.677263
H      -2.221892   -0.150029    0.576942
H      -1.973055   -0.335291   -1.160443
H      -1.603710   -1.678763   -0.063877
H       0.464233   -0.385152   -0.897362
H      -0.153296    1.037848   -0.067995
H       1.570974    0.047322    1.261622
H      -1.050604   -0.698422    2.599529
H       0.127523    0.009828    4.687575
H       0.935868   -1.360117    3.921449
H       1.612873    0.282702    3.759347
H      -0.965512    1.567960    3.178839
H       2.659305   -1.699185    0.228230
H       2.203747   -3.343831    0.517457
