15

C      -1.176409    1.138832   -0.232346
N      -0.227739    0.045214    0.018788
C      -0.137441   -0.404272    1.389917
N       0.739452   -1.401551    1.617481
O      -0.826059    0.116230    2.243624
C       0.500487   -0.483740   -1.026336
O       1.315690   -1.393564   -0.937480
C       0.247724    0.118679   -2.323055
C       0.099576    0.559471   -3.431865
H      -1.623787    1.391154    0.725770
H      -0.661028    2.010354   -0.641627
H      -1.953984    0.823420   -0.931508
H       1.273920   -1.797158    0.854788
H       0.804601   -1.729999    2.564922
H      -0.029285    0.947670   -4.413229
