17

C      -0.231296    1.569841    0.172032
C       0.174081    0.116340   -0.100448
C       0.828522   -0.522695    1.109788
C       0.035239   -1.234307    2.152797
C       0.998076   -2.035296    1.279183
C       0.441631   -2.992100    0.299171
O       0.983598   -4.018358   -0.033788
H       0.639125    2.179165    0.438900
H      -0.696050    2.021016   -0.709667
H      -0.945312    1.631501    0.999827
H      -0.710902   -0.455562   -0.400069
H       0.865286    0.080121   -0.951757
H       1.689046    0.032367    1.477243
H       0.291308   -1.126910    3.200466
H      -1.024654   -1.380954    1.963873
H       1.925422   -2.372555    1.729502
H      -0.552271   -2.712134   -0.119954
