20

C       0.575367    1.440437   -0.106798
C       0.101444    0.005283    0.007447
C      -0.406324   -0.585134   -1.110345
N      -0.874822   -1.833425   -1.388565
C      -1.177797   -2.904674   -0.456885
C      -0.129445   -3.068607    0.640376
C      -0.185735   -1.979917    1.713196
C       0.288107   -0.573024    1.342457
O       0.819831    0.092860    2.222197
H       1.638158    1.526364    0.141666
H       0.422276    1.832898   -1.116454
H       0.047137    2.088573    0.600134
H      -0.425085    0.035760   -2.003872
H      -1.283357   -1.934420   -2.301890
H      -2.164841   -2.751327    0.009845
H      -1.244334   -3.824710   -1.046881
H      -0.309978   -4.036241    1.121410
H       0.867972   -3.122204    0.189027
H      -1.218826   -1.886988    2.077228
H       0.414564   -2.266267    2.580688
