20

C       0.204190    1.779429    0.007328
C       0.220101    0.249183    0.101265
C       0.776727   -0.413170   -1.152785
C       0.827586   -1.964139   -1.275043
C       0.124978   -2.819268   -0.238775
O       0.089790   -1.916905   -2.531918
C      -0.095136   -0.496781   -2.445008
C      -1.510340   -0.126684   -2.310240
N      -2.620321    0.174808   -2.193596
H       1.210813    2.176730   -0.163869
H      -0.437885    2.121802   -0.810310
H      -0.177957    2.222109    0.931445
H       0.837904   -0.059507    0.953803
H      -0.792510   -0.114638    0.304491
H       1.746608    0.029531   -1.396101
H       1.838295   -2.350185   -1.454860
H      -0.894095   -2.471941   -0.051459
H       0.071535   -3.852811   -0.594068
H       0.679252   -2.813424    0.705786
H       0.312896    0.022683   -3.319922
