15

C      -0.034663    1.410967   -0.020483
O       0.009007   -0.009470    0.007689
C       0.633878   -0.574841    1.052046
C       0.757785   -1.943833    1.216924
O       1.446434   -2.182713    2.381153
C       1.742050   -0.995178    2.924008
C       1.277010    0.041955    2.167230
C       0.301789   -3.045163    0.403600
O       0.468424   -4.222987    0.647539
H       0.974770    1.837904   -0.055503
H      -0.573658    1.680582   -0.929112
H      -0.568342    1.808450    0.851100
H       2.288696   -1.023195    3.853500
H       1.382941    1.091939    2.382652
H      -0.238442   -2.702708   -0.504462
