15

O       0.009199    0.022494    0.480077
C       0.021795    1.159549    0.086613
O      -1.142676    1.803869   -0.110747
C      -1.251180    3.144713   -0.651061
C      -0.710119    3.251168   -2.053002
C       0.564025    3.015825   -2.367962
C       1.616646    2.665015   -1.385671
O       1.522940    3.224823   -0.070234
C       1.352512    1.817971   -0.189638
H      -2.326052    3.329860   -0.640685
H      -0.765219    3.849827    0.023977
H      -1.415057    3.501142   -2.839469
H       0.887066    3.068344   -3.403362
H       2.634129    2.632642   -1.771484
H       2.165755    1.213011    0.204765
