19

C       0.196091    1.479906   -0.161192
O       0.298411    0.089112    0.031239
C       0.626455   -0.589023   -1.141030
C       0.704951   -2.087059   -0.905336
N       1.230565   -2.771263   -1.988429
N       0.344912   -2.594377    0.203389
C       0.447933   -4.024592    0.375954
C      -0.008721   -4.421296    1.774401
O      -0.148922   -5.559719    2.137257
H       1.145852    1.917702   -0.508517
H      -0.586931    1.736043   -0.893059
H      -0.064043    1.920139    0.803740
H      -0.123092   -0.400975   -1.934391
H       1.597314   -0.246758   -1.545985
H       1.246505   -2.297801   -2.878645
H       1.034662   -3.757351   -2.056209
H      -0.163206   -4.601615   -0.340359
H       1.481982   -4.393011    0.255619
H      -0.198025   -3.550515    2.439311
