20

C      -0.167633    1.451174    0.012719
C       0.046273   -0.044972    0.048696
C       1.408123   -0.642854   -0.224428
C       0.822645   -0.706677    1.162775
C       1.409284    0.039829    2.368332
O       1.202674   -0.881836    3.459131
C       0.603927   -1.983282    2.915505
C       0.302941   -3.075897    3.881483
N       0.359664   -1.980688    1.667193
H       0.715308    1.996705    0.363532
H      -0.372383    1.790387   -1.008517
H      -1.015067    1.752676    0.638813
H      -0.794817   -0.636058   -0.302323
H       1.466713   -1.572432   -0.778865
H       2.237161    0.041178   -0.385921
H       2.482699    0.239408    2.281852
H       0.894224    0.976661    2.605504
H       1.222857   -3.420470    4.364576
H      -0.361592   -2.711942    4.671664
H      -0.169982   -3.907012    3.359530
