21

C       0.161156    1.633404    0.127401
C       0.022456    0.111217    0.011262
C      -1.427887   -0.450928    0.055378
C      -2.149351   -0.057043    1.362831
C      -2.176153    0.121545   -1.143065
O      -2.185087   -0.367842   -2.244282
C      -1.363356   -2.000449   -0.008113
C      -2.613666   -2.753830   -0.419913
O      -0.350539   -2.585981    0.292595
H       1.218215    1.910992    0.077904
H      -0.350382    2.162850   -0.683259
H      -0.229557    2.014978    1.075531
H       0.479399   -0.228776   -0.923948
H       0.577143   -0.382874    0.813431
H      -2.314089    1.023603    1.407258
H      -3.126651   -0.541125    1.451618
H      -1.549455   -0.345002    2.230553
H      -2.706669    1.081327   -0.945277
H      -2.675432   -2.740064   -1.512418
H      -2.541912   -3.786026   -0.074971
H      -3.528937   -2.289414   -0.041876
