13

O       0.179596    1.254953    0.133508
C       0.078138   -0.067024    0.005873
N       0.119289   -0.763972   -1.110306
C      -0.035493   -2.031773   -0.642999
O      -0.057590   -3.049454   -1.525204
C       0.100558   -4.322743   -1.047652
N      -0.096299   -5.280560   -1.838058
N      -0.173134   -2.172644    0.660081
N      -0.083206   -0.861545    1.073982
H       0.289472    1.617508   -0.755314
H       0.404055   -4.352982    0.000494
H       0.086948   -6.161991   -1.361970
H      -0.168389   -0.620674    2.046393
