19

C       0.954911    0.670229    0.919324
O       0.765044   -0.596345    0.307520
C       0.309737   -0.540833   -1.022866
C       1.343525    0.035420   -1.915281
N       2.154897    0.493097   -2.599180
C      -0.081801   -1.948833   -1.490248
C      -0.774786   -1.979151   -2.833979
C       0.748041   -3.086061   -1.025315
N      -0.606757   -2.864154   -0.473847
H       1.738161    1.247706    0.412342
H       0.023366    1.253846    0.920068
H       1.259329    0.476017    1.948999
H      -0.578179    0.111198   -1.092151
H      -0.123253   -1.601780   -3.628710
H      -1.060974   -3.004741   -3.075333
H      -1.686974   -1.371357   -2.819578
H       0.850468   -3.963173   -1.657668
H       1.598848   -2.870049   -0.387163
H      -0.508625   -2.431629    0.442391
