17

O      -0.325238    0.048000    0.036085
C      -0.049648    1.216291    0.031265
N       1.225848    1.760745    0.003620
C       2.440853    1.098964   -0.024046
N       2.662516   -0.162514   -0.030238
C       4.168835   -0.147305   -0.063654
C       4.521285    0.936917    0.998833
C       3.779658    1.835201   -0.053112
C       4.473809    0.938953   -1.138668
H      -0.806453    2.027390    0.048923
H       1.272857    2.768352    0.003664
H       4.607318   -1.142466   -0.074343
H       4.069217    0.832020    1.987518
H       5.588515    1.161241    1.072675
H       3.812375    2.925723   -0.052800
H       5.536719    1.163454   -1.259397
H       3.978283    0.835923   -2.106503
