20

C      -0.231966    1.532664    0.096645
C      -0.045581    0.016605   -0.032409
C      -1.407217   -0.689878   -0.159926
C       0.817829   -0.295870   -1.229181
C       1.641277   -1.322847   -1.407169
C       1.979519   -2.455760   -0.480507
N       1.536975   -2.512677    0.891473
C       0.965109   -1.604029    1.549111
O       0.532169   -0.355202    1.244595
H       0.737257    2.028372    0.196795
H      -0.739598    1.932326   -0.785781
H      -0.832939    1.761522    0.980072
H      -1.900162   -0.404749   -1.093869
H      -1.276490   -1.775085   -0.164652
H      -2.055376   -0.413174    0.677218
H       0.689719    0.403798   -2.052349
H       2.150165   -1.398786   -2.368065
H       1.659356   -3.390531   -0.968075
H       3.076643   -2.549084   -0.448429
H       0.790585   -1.775570    2.613189
