18

C       0.058585    1.611004   -0.087061
C       0.054003    0.104554    0.008775
O      -1.163563   -0.490073   -0.370068
C       1.262774   -0.747302   -0.206486
N       2.566212   -0.087833   -0.204912
C       2.868302    0.360871    1.162616
C       1.664675   -0.013837    2.050671
O       1.616391    0.152479    3.243900
C       0.643198   -0.676912    1.188645
H       1.023725    2.042647    0.181043
H      -0.154428    1.916665   -1.118934
H      -0.713469    2.036256    0.560475
H      -1.301195   -0.298696   -1.305255
H       1.164587   -1.628853   -0.829705
H       3.267499   -0.742664   -0.523055
H       3.761403   -0.121808    1.575573
H       3.039329    1.443163    1.219493
H       0.006565   -1.435739    1.624616
