19

C      -0.088622    1.531762    0.053987
C       0.040380    0.038496   -0.042098
C      -0.273638   -0.763614   -1.301892
C      -0.689754   -1.911626   -0.352634
C       0.463031   -2.867559   -0.045730
N       1.776530   -2.427047   -0.581351
C       1.391013   -2.087203    0.804468
C       0.705879   -0.763837    1.030466
N      -0.765998   -0.912007    0.825726
H       0.744914    2.026122   -0.458722
H      -1.020588    1.871696   -0.410968
H      -0.090237    1.863773    1.096421
H      -1.151190   -0.333533   -1.792986
H       0.515619   -0.949757   -2.029086
H      -1.640250   -2.407833   -0.541543
H       0.277766   -3.925692    0.102304
H       2.421911   -3.215228   -0.556088
H       1.941781   -2.526149    1.629851
H       0.969623   -0.216431    1.930282
