18

N      -0.619057    1.067380    0.867606
C      -0.348686   -0.089051    0.464029
O       0.877726   -0.669191    0.151141
C       0.188102   -1.850463   -0.345404
C      -0.531428   -2.496611    0.782583
C      -1.158675   -1.286905    0.067940
C      -2.509966   -1.288569   -0.546718
C      -3.583763   -0.355123   -0.031864
C      -2.987323   -0.134941   -1.397695
H       0.227463    1.625826    0.989606
H       0.551359   -2.286840   -1.265357
H      -1.030588   -3.434622    0.555760
H      -0.135676   -2.413114    1.790241
H      -2.845302   -2.276206   -0.850775
H      -4.595310   -0.738570    0.041784
H      -3.297224    0.344549    0.744441
H      -2.323851    0.714221   -1.513771
H      -3.584009   -0.367894   -2.272641
