19

C      -0.009908    1.385157   -0.015258
C       1.336959    0.727099   -0.063601
C       1.740855    0.193988    1.326502
C       0.445153   -0.688603    1.354420
C       0.049474   -0.119331   -0.017267
C      -0.038831   -0.852559   -1.326614
O      -0.150995    0.023641   -2.455244
C       1.148508   -0.503226   -2.148377
C       2.059489    0.468894   -1.382198
H      -0.320346    1.900454    0.891048
H      -0.357248    1.830066   -0.938765
H       2.653594   -0.406534    1.305571
H       1.842523    0.946015    2.116185
H       0.674082   -1.756978    1.323728
H      -0.264409   -0.513351    2.169679
H      -0.563210   -1.801508   -1.414375
H       1.565056   -1.149447   -2.920098
H       2.251425    1.371199   -1.972849
H       3.027789   -0.011761   -1.201472
