21

C       0.112154    1.548178    0.084609
C       0.076024    0.025680    0.047582
C      -1.351240   -0.505741   -0.154084
O       0.920608   -0.392459   -1.045244
C       1.358693   -1.720006   -0.793877
C       1.566013   -1.809114    0.718565
C       2.759490   -1.012542    1.283319
O       1.897100    0.039117    1.764919
C       0.719359   -0.638157    1.282423
H       1.129461    1.892814    0.273694
H      -0.232415    1.952952   -0.871194
H      -0.539223    1.930715    0.876461
H      -1.732706   -0.179071   -1.125360
H      -1.387707   -1.599740   -0.125679
H      -2.020773   -0.130654    0.626180
H       0.615108   -2.460259   -1.127810
H       2.275765   -1.881499   -1.369564
H       1.417204   -2.807114    1.129964
H       3.302267   -1.496246    2.104342
H       3.478182   -0.647581    0.539174
H       0.003779   -0.826618    2.089419
