23

C      -2.521472   -3.095191    0.233764
N      -1.300386   -2.327744    0.055825
C      -0.834605   -1.907791   -1.274383
C       0.652967   -2.117335   -1.518878
C      -1.643832   -2.217638   -2.525904
C      -1.325493   -0.892870   -0.265531
C      -2.640815   -0.156398   -0.476968
C      -0.348193   -0.047440    0.538632
H      -3.356546   -2.837076   -0.432735
H      -2.295641   -4.156961    0.087588
H      -2.869050   -2.971609    1.265091
H       0.829490   -3.122963   -1.918840
H       1.036465   -1.399428   -2.253459
H       1.233901   -2.023105   -0.601683
H      -2.718751   -2.084684   -2.409853
H      -1.318974   -1.573662   -3.350629
H      -1.470099   -3.254432   -2.837517
H      -3.381392   -0.715046   -1.047979
H      -3.089722    0.094687    0.491362
H      -2.460977    0.787124   -1.004070
H      -0.051165    0.848709   -0.018827
H      -0.819575    0.286389    1.470713
H       0.548569   -0.605561    0.806824
