18

O       0.119481    1.496131   -0.143995
C       0.045747    0.077332    0.017382
C      -1.404422   -0.386868    0.228847
C      -2.328843   -0.028889   -0.909205
C      -2.178258   -0.390362   -2.182754
C      -1.083073   -1.239341   -2.776334
C       0.315143   -1.167425   -2.218922
C       0.787203   -0.632853   -1.091765
H      -0.310126    1.694304   -0.984556
H       0.590037   -0.109346    0.950711
H      -1.405081   -1.472143    0.397201
H      -1.768550    0.076303    1.150645
H      -3.199452    0.570285   -0.653483
H      -2.943216   -0.083047   -2.893310
H      -1.409096   -2.294659   -2.768547
H      -1.009922   -1.003333   -3.846812
H       1.047800   -1.628004   -2.881358
H       1.864574   -0.672381   -0.943414
