16

O      -0.020737    1.394224   -0.075829
C      -0.057109   -0.017706   -0.049296
C      -1.472988   -0.556726    0.032922
O      -2.143035   -0.127242   -1.176743
C      -3.411562   -0.523331   -1.327911
O      -4.016239   -1.214662   -0.543305
C      -4.031860   -0.009876   -2.614947
O      -5.348573   -0.461460   -2.744628
H      -0.532296    1.673946   -0.842647
H       0.448860   -0.455629   -0.923835
H       0.491334   -0.332634    0.844365
H      -1.493558   -1.649119    0.090950
H      -2.005627   -0.146320    0.895345
H      -3.982012    1.089822   -2.604958
H      -3.407534   -0.345428   -3.456559
H      -5.526349   -0.983732   -1.948271
