24

C      -0.307844    1.302483   -0.257658
C       0.057081   -0.155842   -0.073583
C       1.497842   -0.608293   -0.064248
C       0.667950   -0.706043    1.195728
C       0.967556    0.154115    2.404778
N       1.858627   -0.564894    3.312106
C       3.295758   -0.355721    3.176210
C       2.566686    0.151440    4.374841
C       2.408625    1.634866    4.633524
H       0.433442    1.971564    0.188618
H      -0.371891    1.552692   -1.322585
H      -1.278816    1.534566    0.194825
H      -0.635970   -0.835672   -0.563577
H       1.772731   -1.518418   -0.586167
H       2.257575    0.167633   -0.100311
H       0.348874   -1.706656    1.473671
H       1.374227    1.125485    2.082769
H       0.039283    0.361699    2.953260
H       3.920716   -1.243984    3.225736
H       3.634150    0.392630    2.458970
H       2.638202   -0.439003    5.288254
H       2.436330    2.227370    3.715941
H       1.465515    1.850047    5.148580
H       3.221866    1.986884    5.277246
