16

C       0.085303    1.471098    0.059226
C      -0.008356   -0.015346   -0.020185
N      -0.222576   -0.717108   -1.119496
C      -0.197027   -2.030293   -0.735908
C       0.022051   -2.143868    0.616791
N       0.125793   -0.832918    1.063087
C       0.105851   -3.337437    1.467224
N      -0.016449   -3.096704    2.832602
O       0.307240   -4.449803    1.020140
H       1.070085    1.797750    0.412759
H      -0.076604    1.882779   -0.937319
H      -0.666408    1.891203    0.736854
H      -0.352655   -2.836620   -1.435475
H       0.419654   -0.553794    1.984917
H      -0.656008   -2.370469    3.121056
H      -0.089341   -3.945948    3.376368
