21

O      -0.014154    1.448695   -0.167721
C      -0.022957    0.026690    0.009393
C       0.695396   -0.718125   -1.163471
C       1.596240   -1.796854   -0.515171
C       1.676842   -1.355071    0.926076
C       0.801140   -0.393089    1.210873
C      -1.497636   -0.336310    0.092859
C      -1.971074   -1.639784    0.680922
C      -2.267918   -0.337464    1.384960
H       0.907543    1.729397   -0.172701
H      -0.016186   -1.131769   -1.881735
H       1.308723    0.011944   -1.701693
H       1.148358   -2.796744   -0.587757
H       2.582294   -1.870952   -0.988265
H       2.364217   -1.804123    1.635809
H       0.663744    0.075616    2.178800
H      -2.041069    0.021778   -0.777557
H      -2.782440   -2.162278    0.186433
H      -1.229838   -2.288951    1.134646
H      -1.733455   -0.131871    2.305526
H      -3.283791    0.041109    1.370811
