19

C      -0.161207    1.651203   -0.126782
C       0.001944    0.138087   -0.081718
C       0.739412   -0.581198   -1.224013
C       2.185010   -0.186711   -1.264872
C       1.745151   -1.188684   -0.232717
C       1.038053   -0.492948    0.917310
O       1.843032    0.436529    1.650471
C       1.833520    0.383474    2.993964
O       2.462017    1.133101    3.679135
H       0.791627    2.162863   -0.280567
H      -0.835741    1.935762   -0.941113
H      -0.588076    2.027148    0.808857
H      -0.973187   -0.328466    0.091620
H       0.254546   -1.071777   -2.058554
H       2.755490   -0.610224   -2.084887
H       2.512698    0.802775   -0.963052
H       2.152302   -2.191236   -0.192878
H       0.565547   -1.188845    1.618159
H       1.187358   -0.427306    3.385991
