16

C      -0.178104    1.515105   -0.012321
C      -0.591279    0.145658   -0.523059
O      -0.830652   -0.083827   -1.691134
N      -0.646247   -0.830103    0.448649
C      -0.950688   -2.163710    0.218238
C      -1.268807   -2.899962   -0.881016
C      -1.464828   -4.236457   -0.391028
C      -1.252889   -4.203587    0.946242
O      -0.933839   -2.927100    1.339332
H      -0.689471    2.274922   -0.604741
H      -0.402062    1.666665    1.047187
H       0.899497    1.645455   -0.158557
H      -0.439530   -0.590867    1.405515
H      -1.348880   -2.528337   -1.885976
H      -1.730556   -5.104553   -0.973819
H      -1.279861   -4.934978    1.735206
