16

C      -0.434293    1.513151   -0.195208
C       0.166901    0.125523    0.076530
O      -0.800785   -0.786057    0.583344
C       0.848786   -0.397272   -1.111696
C       1.389388   -0.817540   -2.107029
C       2.056271   -1.325733   -3.292433
C       1.514716   -2.633053   -3.833753
O       2.983457   -0.732693   -3.801080
H       0.342945    2.225016   -0.485977
H      -1.169194    1.461702   -1.005053
H      -0.931138    1.870826    0.709916
H       0.907090    0.214955    0.881100
H      -1.441152   -0.952920   -0.117517
H       0.454658   -2.525474   -4.088187
H       2.083145   -2.925391   -4.717778
H       1.581918   -3.413319   -3.067995
