17

C      -0.193102    1.457570    0.005730
C      -0.009645   -0.020762   -0.002456
N       0.210546   -0.689889   -1.103648
O       0.319123   -2.019978   -0.657302
C       0.149256   -1.991194    0.673172
N      -0.056940   -0.793595    1.139441
C       0.210836   -3.246568    1.420466
C      -0.312453   -4.531769    0.798549
C       1.160823   -4.350144    0.982346
H       0.566462    1.929146    0.636405
H      -0.117756    1.854833   -1.007427
H      -1.171167    1.714626    0.423262
H       0.060588   -3.102878    2.482665
H      -0.842126   -5.210288    1.456870
H      -0.710117   -4.461238   -0.206753
H       1.761229   -4.156584    0.101557
H       1.661822   -4.901610    1.769246
