15

O       0.009108   -0.028273    0.197401
C      -0.008510    1.152612    0.018632
C      -1.080970    2.258276   -0.004798
C      -0.043725    2.977038    0.951421
C       1.010435    2.307544    0.006274
N       0.753966    3.056903   -1.263354
C       0.088975    2.267226   -2.324119
C      -0.742068    2.974260   -1.314863
H      -2.120748    2.082882    0.258697
H      -0.050423    4.067904    0.925556
H      -0.038569    2.595095    1.974031
H       2.064208    2.199800    0.251350
H       0.193841    2.704491   -3.312743
H       0.151802    1.182079   -2.303634
H      -1.277455    3.883685   -1.573342
