18

O       0.617039    0.111222   -0.792881
C      -0.180782    0.409031    0.344746
C      -1.514169   -0.240527    0.161531
C      -2.264382   -0.395367   -1.139203
C      -3.733150   -0.113787   -0.889308
N      -3.901765   -0.579672    0.495255
C      -2.990739   -1.714172    0.734389
C      -1.871373   -1.624240   -0.341296
C      -2.645641   -0.354620    1.230248
H       1.474316    0.530192   -0.674346
H       0.292611    0.036967    1.268976
H      -0.310140    1.498751    0.465340
H      -1.758551   -0.180216   -2.071160
H      -3.985065    0.950001   -0.951589
H      -4.399637   -0.676070   -1.551364
H      -3.354617   -2.598002    1.242153
H      -1.226568   -2.415633   -0.693523
H      -2.667302    0.090165    2.217584
