18

O      -0.011019    1.429074    0.190711
C      -0.027931    0.062257   -0.164236
C      -1.385500   -0.568338   -0.030910
C      -1.902627   -1.693443   -0.841635
N      -2.540318   -0.374362   -1.010718
C      -3.478462   -0.228855    0.163656
C      -2.312780   -0.351783    1.144035
C      -2.184115   -0.701764    2.559262
O      -2.043486    0.660684    2.109906
H      -0.422791    1.500654    1.061357
H       0.297665   -0.002292   -1.208000
H       0.691792   -0.523445    0.435770
H      -1.319184   -1.996834   -1.706220
H      -2.459753   -2.499937   -0.367586
H      -3.917764    0.770671    0.175954
H      -4.268369   -0.985869    0.201645
H      -3.075181   -0.893285    3.154524
H      -1.271047   -1.169947    2.923504
