18

C       0.198924    1.584743   -0.258321
C       0.114158    0.143421   -0.080896
C       0.046700   -1.049137    0.073834
C      -0.028063   -2.483095    0.239451
O      -0.047577   -2.902532    1.656563
C      -1.267157   -3.526987    1.502476
N      -1.981403   -4.136435    2.332712
C      -1.404525   -3.198799    0.029470
C      -2.618111   -2.382097   -0.387980
H       1.176584    1.881413   -0.652801
H      -0.567071    1.943662   -0.954192
H       0.051235    2.104135    0.694657
H       0.806885   -2.980112   -0.263594
H      -1.552384   -4.146298    3.259697
H      -1.301886   -4.089254   -0.596933
H      -2.706801   -1.471967    0.210215
H      -2.551487   -2.093925   -1.441257
H      -3.525364   -2.975807   -0.247331
