20

C      -0.754748    0.888525    0.365116
C       0.174970   -0.234182   -0.055340
C       1.378213    0.034442   -1.009661
C       2.249424   -0.554733    0.095992
C       2.088183    0.224907    1.352849
N       1.085672   -0.817703    1.010124
C       2.950700   -0.053209    2.552454
C       3.170356   -1.496016    2.955323
O       3.437696    0.875948    3.159194
H      -0.215654    1.773464    0.714659
H      -1.377894    1.194014   -0.482171
H      -1.417464    0.553286    1.169491
H      -0.419699   -1.073431   -0.426609
H       1.348165   -0.565438   -1.920770
H       1.587566    1.074300   -1.277166
H       3.045986   -1.279320   -0.039632
H       1.826688    1.276484    1.276723
H       3.733119   -2.031063    2.181572
H       3.729920   -1.526599    3.890541
H       2.208974   -2.007456    3.052969
