19

C       0.036795    1.510466   -0.004129
C      -0.005676    0.016215    0.006796
C      -1.093562   -0.762378   -0.062585
C      -0.759236   -2.204251   -0.025564
C      -1.580027   -3.280194    0.674658
C      -1.475801   -3.294667   -0.812031
C       0.740138   -2.265176    0.080565
O       1.409496   -3.267752    0.137377
C       1.252897   -0.817437    0.102717
H       0.631341    1.886107   -0.846981
H      -0.966591    1.939035   -0.078523
H       0.508461    1.902550    0.906226
H      -2.112097   -0.395916   -0.137587
H      -1.010685   -4.018453    1.229284
H      -2.512003   -2.966682    1.132237
H      -2.334492   -2.991553   -1.401130
H      -0.835744   -4.042845   -1.267407
H       1.950046   -0.651516   -0.729482
H       1.828710   -0.634542    1.019731
