21

C       0.101465    1.337255    0.321963
C      -0.000190   -0.159939    0.011050
C       0.731245   -0.557645   -1.266397
C       2.299306   -0.573473   -1.281011
O       2.871467   -0.305671   -0.017539
C       2.285295   -2.061786   -1.756929
C       2.193690   -3.083591   -0.614752
O       0.752605   -2.956923   -0.546267
C       0.732074   -2.053162   -1.670283
H       1.144440    1.631437    0.466578
H      -0.313990    1.944024   -0.491294
H      -0.449344    1.586467    1.234597
H       0.392154   -0.744684    0.846707
H      -1.054358   -0.447386   -0.095828
H       0.369079    0.049958   -2.104900
H       2.717305    0.097667   -2.042336
H       3.829601   -0.311733   -0.108746
H       2.864458   -2.322085   -2.642215
H       2.487747   -4.103237   -0.893521
H       2.681268   -2.800412    0.323818
H       0.044367   -2.384514   -2.453497
