19

O       0.110580    0.262219    0.854673
C       0.046206    1.247969    0.158663
C      -1.260390    2.008466   -0.044525
C      -1.264020    2.922474   -1.276012
C      -0.098510    3.900706   -1.233082
O      -0.118443    4.724433   -0.040540
C       1.168261    4.230048    0.387385
C       1.272970    3.290180   -0.833916
C       1.274609    1.783291   -0.578930
H      -2.079717    1.284872   -0.053059
H      -1.401227    2.630098    0.849351
H      -1.195430    2.335197   -2.201383
H      -2.204677    3.481510   -1.327144
H      -0.079066    4.523839   -2.135737
H       1.918259    5.028611    0.434720
H       1.114147    3.738145    1.367851
H       2.087791    3.552951   -1.511388
H       2.167481    1.458159   -0.036449
H       1.296886    1.258641   -1.545976
