12

O       0.052690   -0.037405    0.003081
C      -0.050770    1.168897    0.006774
C       1.162197    2.015155    0.000712
N       2.146131    2.621377   -0.004398
C      -1.329595    1.879213    0.017021
N      -1.376139    3.217463    0.020646
N      -2.676139    3.495756    0.029928
C      -3.471725    2.388339    0.032481
C      -2.625613    1.307265    0.024260
H      -2.965591    4.461193    0.034206
H      -4.547051    2.466027    0.039791
H      -2.877433    0.260704    0.023383
