15

C       0.109519    1.403599    0.006659
O       0.022076   -0.007525    0.002883
C      -1.225525   -0.545229    0.010617
C      -2.412379    0.123350    0.021991
N      -3.564409   -0.608896    0.028354
C      -3.632102   -2.015616    0.023747
O      -4.708751   -2.571743    0.031402
N      -2.400311   -2.669916    0.012707
C      -1.304465   -1.973636    0.006613
H       1.172286    1.648005   -0.000709
H      -0.368470    1.837368   -0.882754
H      -0.354765    1.831738    0.906005
H      -2.517949    1.199560    0.026502
H      -4.461167   -0.144892    0.036939
H      -0.359360   -2.519218   -0.002301
