20

C       0.283469    1.368152   -0.119906
C       0.274925   -0.147302   -0.061019
O       0.644138   -0.633805   -1.364586
C       0.680907   -1.978614   -1.485599
O       0.466004   -2.755765   -0.585457
N       0.916988   -2.338763   -2.801413
C       2.002358   -1.843701   -3.625199
C       1.937356   -3.287024   -3.211152
C       2.916402   -3.853132   -2.210665
H       1.276514    1.743751   -0.382964
H      -0.430141    1.734062   -0.863426
H       0.007016    1.778830    0.855722
H       0.983947   -0.532296    0.678796
H      -0.712868   -0.540880    0.198868
H       1.730851   -1.541764   -4.633120
H       2.752465   -1.219542   -3.145634
H       1.579528   -3.999921   -3.952304
H       3.319147   -3.071980   -1.559457
H       2.432869   -4.598944   -1.574342
H       3.751804   -4.328183   -2.734713
