23

C       0.072233    1.538357   -0.045539
C       0.280090    0.022008   -0.021643
C       0.520966   -0.531430    1.389835
C       0.704774   -2.036110    1.407926
C       1.988163   -2.777948    1.066416
C       3.218170   -2.047925    1.621890
C       2.616093   -2.149967    3.062112
C       1.387774   -2.853931    2.468719
O       0.781940   -3.949983    3.064761
H       0.946024    2.064347    0.355525
H      -0.097191    1.903875   -1.063243
H      -0.793040    1.829482    0.560777
H      -0.595116   -0.475883   -0.459779
H       1.130694   -0.247234   -0.660587
H       1.393641   -0.031988    1.826401
H      -0.329325   -0.262276    2.032728
H      -0.155508   -2.580716    1.018002
H       2.006308   -3.533359    0.290075
H       4.138205   -2.626191    1.515282
H       3.399317   -1.039131    1.238196
H       3.189282   -2.832251    3.693600
H       2.446024   -1.218490    3.612574
H       0.015838   -3.640871    3.560012
