14

N      -0.158023    1.277545    0.008188
C      -0.017269    0.019817    0.000822
C      -1.185593   -0.953707    0.001846
N      -0.537274   -2.265722   -0.008485
C      -1.260093   -3.452957   -0.010942
O      -0.804826   -4.562376   -0.019083
C       0.869102   -2.150859   -0.015319
O       1.693213   -3.019294   -0.024160
N       1.118061   -0.775089   -0.009303
H       0.736885    1.768203    0.006085
H      -1.802069   -0.805806    0.893581
H      -1.811435   -0.796452   -0.881726
H      -2.348066   -3.236721   -0.003962
H       2.066117   -0.433408   -0.012475
