17

C      -0.005219    1.542051   -0.026113
C      -0.004319    0.046168    0.030627
C      -0.002150   -0.814463   -1.030519
O      -0.001814   -2.130715   -0.627823
C      -0.003882   -2.076365    0.717465
C      -0.005443   -0.812868    1.183733
C      -0.007654   -0.869823    2.677065
O      -0.007254   -2.284915    2.977864
C      -0.004820   -3.100231    1.796688
H       0.875157    1.963344    0.472512
H      -0.004516    1.897325   -1.060168
H      -0.887022    1.962210    0.470934
H      -0.000699   -0.657921   -2.097039
H       0.878015   -0.410401    3.139047
H      -0.895267   -0.411493    3.136387
H      -0.892534   -3.750270    1.791426
H       0.883859   -3.748970    1.794177
