21

C       0.024219    1.526068    0.163520
C       0.026725    0.028876    0.010214
C      -1.088177   -0.697933    0.099171
C      -1.184165   -2.205633   -0.014927
O      -2.540407   -2.638875    0.031395
C      -0.594129   -2.763332   -1.313535
C       0.931041   -2.673913   -1.386422
O       1.447410   -1.358913   -1.469452
C       1.381675   -0.607222   -0.270134
H       0.694292    1.843225    0.973753
H       0.389603    2.014528   -0.749107
H      -0.975134    1.910987    0.382418
H      -2.040018   -0.193179    0.259529
H      -0.623923   -2.661266    0.823803
H      -2.927666   -2.311660    0.849577
H      -0.880312   -3.819661   -1.381121
H      -1.038480   -2.242889   -2.167924
H       1.376017   -3.195969   -0.520937
H       1.281828   -3.182718   -2.289778
H       2.136925    0.177911   -0.376506
H       1.687887   -1.236450    0.584650
