18

C      -0.076685    1.421077    0.033707
C      -0.132779   -0.063637   -0.144873
N      -1.020932   -0.794818    0.384791
C      -1.040918   -2.189166    0.096806
C      -1.076104   -2.664907   -1.360913
O      -1.196756   -1.798344   -2.439153
C       0.182033   -2.823842   -0.556635
C       1.328589   -1.862877   -0.759423
O       0.879080   -0.507639   -0.976126
H       0.862400    1.713871    0.515000
H      -0.108970    1.922949   -0.939139
H      -0.920757    1.747256    0.640171
H      -1.614768   -2.766535    0.813806
H      -1.658274   -3.563199   -1.542657
H      -0.505408   -1.128689   -2.378660
H       0.485213   -3.822435   -0.253466
H       1.988622   -1.874759    0.117884
H       1.927307   -2.105614   -1.642060
