17

C      -0.111947    1.566909    0.034860
C      -0.010233    0.070935   -0.027277
C       0.104039   -0.592891   -1.179423
N       0.200697   -1.983856   -1.270638
C       0.192175   -2.861813   -0.202595
N       0.279203   -4.133960   -0.264054
C       0.064245   -2.211405    1.179105
O       0.046918   -2.892077    2.171095
C      -0.040016   -0.689719    1.268249
H       0.706470    2.000747    0.624664
H      -0.079845    2.014222   -0.962606
H      -1.045581    1.886103    0.516867
H       0.129877   -0.087138   -2.137927
H       0.283886   -2.389080   -2.189721
H       0.360152   -4.457678   -1.231634
H       0.769603   -0.360575    1.936413
H      -0.960170   -0.472862    1.830838
