20

C       0.211574    1.545698    0.258898
C       0.018566    0.073510   -0.023956
C       0.439100   -0.566633   -1.335339
C       1.116625    0.202085   -2.455805
C       2.536828   -0.289473   -2.714995
O       3.500509    0.234383   -1.791884
C       3.400377    0.019290   -0.457582
N       2.498836   -0.440179    0.296170
C       1.191805   -0.888768   -0.055047
H       1.196149    1.903251   -0.052197
H      -0.546454    2.150594   -0.251635
H       0.126691    1.740177    1.332889
H      -0.889310   -0.335598    0.411539
H      -0.206057   -1.367940   -1.686895
H       0.539542    0.082097   -3.379529
H       1.155738    1.278596   -2.258802
H       2.575216   -1.386111   -2.692420
H       2.899726    0.046311   -3.690493
H       4.334988    0.352326   -0.004639
H       0.990217   -1.861769    0.386052
