18

C      -0.233845    1.619229    0.085495
N      -0.167244    0.173571    0.103996
C      -1.028489   -0.574453    1.046610
C      -1.592520   -1.857006    0.414343
O      -0.345652   -2.560423    0.676182
C       0.179830   -1.456797    1.431809
C       1.064127   -0.464480    0.618273
C       1.975986   -1.065682   -0.431740
O       3.160159   -1.221395   -0.279141
H       0.507326    2.011007   -0.618566
H      -1.222262    1.939360   -0.259543
H      -0.044925    2.084381    1.070726
H      -1.636094    0.017391    1.734165
H      -2.423047   -2.320671    0.961289
H      -1.823719   -1.796150   -0.653271
H       0.514893   -1.740262    2.430302
H       1.655070    0.169274    1.296569
H       1.450278   -1.368651   -1.361810
