19

C      -0.079594    1.496199    0.154251
C       0.011119   -0.005438    0.007188
C       0.669967   -0.693726   -1.167971
C       0.049504   -1.951071   -1.736020
N       1.401027    0.148828   -2.090023
C       1.354671   -0.710622    0.217988
O       2.497669    0.063342    0.348853
C       1.388821   -1.933790    0.980503
N       1.381031   -2.922116    1.582370
H       0.875020    1.978524   -0.062085
H      -0.843261    1.913885   -0.511462
H      -0.356484    1.757691    1.179826
H      -0.845764   -0.551233    0.392954
H      -0.753890   -1.699264   -2.437752
H       0.797301   -2.546994   -2.272713
H      -0.368322   -2.584404   -0.949920
H       1.782692   -0.400590   -2.852395
H       0.816332    0.874550   -2.490460
H       2.668077    0.387266   -0.556725
