20

C       0.139914    1.537921    0.252060
C      -0.067276    0.042631   -0.007677
C       0.572889   -0.465563   -1.308361
C       0.823466   -1.981899   -1.269992
O       1.382240   -2.421893   -2.501312
C       0.503107   -2.179469   -3.543589
O       0.175682   -0.795895   -3.697190
C      -0.206164   -0.117875   -2.565184
N      -1.086468    0.788840   -2.605811
H       1.207047    1.783737    0.301343
H      -0.316029    2.130656   -0.542638
H      -0.311319    1.830213    1.205390
H       0.362227   -0.530264    0.825311
H      -1.138460   -0.184156   -0.026652
H       1.561073    0.000335   -1.434342
H       1.543235   -2.235612   -0.488726
H      -0.114829   -2.524219   -1.065259
H       0.988322   -2.479252   -4.473485
H      -0.437764   -2.738675   -3.401504
H      -1.462567    0.866009   -3.553215
