17

C      -0.029743    1.522305    0.003659
C       0.077984    0.014506    0.064642
O       1.123606   -0.580752    0.145325
N      -1.141808   -0.692713    0.021764
C      -2.434145   -0.205664   -0.067633
N      -3.318032   -1.159133   -0.082097
C      -2.594742   -2.349519    0.001388
C      -3.288199   -3.670675    0.010895
C      -1.261340   -2.080475    0.065694
H       0.977720    1.934385    0.041522
H      -0.520777    1.844127   -0.919645
H      -0.612896    1.908151    0.845303
H      -2.646499    0.850926   -0.117744
H      -3.880776   -3.807077   -0.900019
H      -2.570302   -4.491588    0.081429
H      -3.979686   -3.742527    0.857187
H      -0.384613   -2.699444    0.137045
