18

C      -0.020329    1.445388    0.040438
C       0.004771   -0.062431   -0.011910
C       0.993296   -0.749717   -0.955637
O       0.396257   -1.999935   -1.312055
C      -0.633776   -2.237927   -0.365309
C      -0.073082   -2.322057    1.092870
C      -0.400972   -0.834854    1.238960
C      -1.262948   -0.865600   -0.019905
H       0.932271    1.847139    0.404775
H      -0.204217    1.873613   -0.951447
H      -0.806490    1.804861    0.711625
H       1.147827   -0.163527   -1.870173
H       1.974949   -0.912776   -0.487835
H      -1.254197   -3.057464   -0.724957
H      -0.712393   -2.935655    1.734075
H       0.966303   -2.652332    1.193955
H      -0.591012   -0.309786    2.168587
H      -2.256121   -0.489644   -0.226877
