15

C      -0.011792    1.390695    0.014987
C       1.423937    1.930492    0.024521
O       2.129968    1.552973    1.204589
C       1.924051    0.220981    1.451027
C       0.901941   -0.499684    0.876614
N       1.002321   -1.765644    1.338257
N       2.050813   -1.912995    2.189466
C       2.610930   -0.704446    2.259167
O      -0.037426   -0.049657    0.017183
H      -0.554721    1.758558    0.894353
H      -0.533527    1.704520   -0.891340
H       1.956447    1.559317   -0.862650
H       1.408083    3.022825    0.000120
H       0.426308   -2.556833    1.109577
H       3.476855   -0.543317    2.882714
