16

O       0.081042    1.242483    0.664599
C      -0.075399   -0.114762    0.395838
C      -1.521647   -0.435523    0.040693
N      -2.359995    0.515914    0.033428
N      -1.745415   -1.783747   -0.241344
C      -2.943834   -2.383848   -0.592343
N      -4.032274   -1.716142   -0.701478
C      -2.830000   -3.802647   -0.813979
C      -2.757121   -4.987956   -1.003787
H      -0.811676    1.616781    0.545183
H       0.570339   -0.430446   -0.442318
H       0.216839   -0.728185    1.266144
H      -3.297902    0.203219   -0.215220
H      -0.949863   -2.400402   -0.183291
H      -4.799530   -2.329149   -0.965533
H      -2.703484   -6.035977   -1.173882
