16

C      -0.038431    1.510752    0.101689
O       1.066287    1.941232   -0.725094
C       2.095319    0.938187   -0.811753
C       1.332377   -0.346514   -0.646800
C       0.773616   -1.583149   -1.236620
C      -0.603647   -1.267494   -0.578868
C       0.115543   -1.287362    0.764376
N       1.467514   -1.629756    0.120815
C       0.001826    0.009388    0.008735
H       0.099993    1.854584    1.136919
H      -0.937295    1.980782   -0.305576
H       2.593229    1.072790   -1.774848
H       2.835409    1.055438   -0.006055
H       1.090207   -2.215382   -2.058228
H      -1.626740   -1.525752   -0.815218
H      -0.213921   -1.617647    1.742590
