17

C       0.046790    1.393421   -0.387427
N       1.421601    1.404529    0.200784
C       1.344698    0.071857    0.613864
N       1.982422   -0.676184    1.408108
C       1.351428   -2.010728    1.483151
C      -0.204654   -2.001156    1.559804
C      -0.856462   -1.129400    0.501827
O      -0.326281   -1.229213   -0.838440
C       0.026536   -0.107915   -0.058028
H      -0.686033    2.000654    0.154487
H       0.027469    1.644305   -1.451100
H       1.776838    2.150286    0.783808
H       1.658205   -2.611609    0.618429
H       1.735479   -2.517867    2.372492
H      -0.570770   -3.031716    1.489941
H      -0.522422   -1.614622    2.537314
H      -1.932370   -0.972322    0.546832
