13

F       0.364319    0.126106    0.187711
C      -0.034904    1.399408    0.044817
F       1.045682    2.140396   -0.218085
F      -0.838777    1.459447   -1.021030
C      -0.742086    1.881949    1.295318
C      -1.570648    0.876777    2.082895
C      -0.265483    1.348564    2.638997
C      -1.201534    3.244122    1.218322
N      -1.578461    4.335864    1.174997
H      -2.489217    1.247786    2.519677
H      -1.621643   -0.124013    1.672487
H       0.579172    0.671556    2.610143
H      -0.272061    2.049218    3.464366
