13

N       0.047932   -1.163735    0.059322
C       0.050834   -0.007250    0.036310
C       0.032392    1.421350   -0.048688
C      -0.717909    2.245857   -1.114615
C       0.449147    3.287502   -1.088084
C       1.160671    2.434801   -0.028690
N       0.331702    2.215190    1.140493
H      -0.792284    1.730864   -2.073522
H      -1.713418    2.586195   -0.815391
H       0.984549    3.329521   -2.038373
H       0.204843    4.307042   -0.775171
H       2.225890    2.261891    0.067083
H      -0.359342    2.948403    1.293871
