20

O       0.753520    1.166150   -0.878164
C       0.377110   -0.044772   -0.295756
C       1.209373   -1.253210   -0.691211
C       2.682885   -1.207682   -0.233229
N       3.586737   -0.463930   -1.107202
C       3.892446    0.839703   -0.949797
O       3.417239    1.573913   -0.096963
C      -0.223196    0.006111    1.092014
C      -1.103307   -0.213005   -0.124909
H       1.570783    1.469663   -0.446910
H       0.754470   -2.147821   -0.250389
H       1.173814   -1.382075   -1.780339
H       2.753505   -0.759531    0.761868
H       3.075707   -2.226852   -0.167223
H       4.008329   -0.950523   -1.882369
H       4.642408    1.190460   -1.682810
H      -0.063387   -0.827114    1.768975
H      -0.265535    0.978566    1.568553
H      -1.716297    0.618657   -0.451597
H      -1.542798   -1.193317   -0.275961
