16

C      -0.431420    1.597712    0.028592
C       0.090619    0.169981   -0.071404
C       0.904093   -0.202908   -1.341900
C       2.085819   -0.422268   -0.360777
O       1.250342   -0.039590    0.771011
C       2.618100   -1.768258   -0.259554
C       3.063515   -2.882028   -0.190122
C      -0.974290   -0.795063    0.255054
N      -1.821750   -1.543246    0.494361
H       0.366978    2.296956   -0.232733
H      -1.276900    1.747737   -0.649482
H      -0.761940    1.806811    1.049282
H       0.571069   -1.094935   -1.868507
H       1.035434    0.622442   -2.041756
H       2.905102    0.296096   -0.479066
H       3.452660   -3.868219   -0.121244
