17

O       0.046919   -0.072892   -0.086871
C      -0.019560    1.128394   -0.004261
N      -1.167286    1.915539    0.049073
C      -0.823384    3.324084   -0.112672
C      -1.394935    4.417945    0.802702
C      -0.172904    5.369615    0.995881
C       1.019052    4.427887    0.897097
C       0.627158    3.297899    0.310235
N       1.079793    2.012707    0.075693
H      -1.994396    1.518126   -0.368039
H      -0.915745    3.625295   -1.170164
H      -2.273361    4.922019    0.390821
H      -1.666995    3.969611    1.763292
H      -0.157419    6.149147    0.219973
H      -0.211891    5.893156    1.956903
H       2.002602    4.653907    1.286358
H       1.965725    1.648469    0.387053
