18

O       0.012387    1.133316   -0.620628
C      -0.024043   -0.141828   -0.033151
C      -1.434421   -0.720088   -0.207919
O      -2.167633   -0.417083   -1.125842
N      -1.776626   -1.641315    0.741736
C      -3.037978   -2.358415    0.687013
C      -3.012084   -3.534678   -0.316693
C      -4.266970   -4.273168   -0.324072
C      -5.315376   -4.860425   -0.296712
H       0.932445    1.400368   -0.699028
H       0.673053   -0.845067   -0.518760
H       0.237712   -0.114436    1.038334
H      -1.130641   -1.850124    1.484658
H      -3.272424   -2.726623    1.688873
H      -3.820267   -1.656559    0.388988
H      -2.805694   -3.126457   -1.312136
H      -2.182001   -4.207413   -0.066930
H      -6.238021   -5.385694   -0.290973
