19

C       0.147314    1.429339   -0.050769
C       0.134378   -0.075619    0.180683
C       0.343233   -0.935908   -1.107072
C       1.462944   -1.930047   -0.761792
O       2.678824   -1.399940   -1.272866
C       1.500268   -1.871684    0.800743
N       1.190287   -0.480455    1.138329
C       0.514263   -2.793015    1.387634
N      -0.259435   -3.543163    1.804758
H       1.084370    1.742052   -0.527112
H      -0.675508    1.725729   -0.707628
H       0.041307    1.969520    0.894503
H      -0.824246   -0.354174    0.634019
H      -0.572450   -1.458733   -1.392433
H       0.666214   -0.330601   -1.957454
H       1.278203   -2.940960   -1.143804
H       3.371179   -2.059328   -1.157427
H       2.488327   -2.147224    1.182535
H       2.029726    0.056898    0.933571
