16

C      -0.071654    1.450288    0.001591
N      -0.011232   -0.006376    0.009920
N      -0.042997   -0.621577   -1.186434
C       0.010405   -1.925055   -1.193771
C      -0.023613   -2.630098   -2.515989
N       0.096777   -2.714934   -0.066616
C       0.126371   -2.109187    1.075239
C       0.074324   -0.655723    1.237870
O       0.099928   -0.047634    2.295573
H       0.819835    1.861518    0.482119
H      -0.134883    1.769958   -1.036533
H      -0.943610    1.788816    0.567145
H       0.877020   -3.239062   -2.645206
H      -0.879046   -3.311901   -2.561175
H      -0.092493   -1.908910   -3.330760
H       0.194219   -2.695798    1.989679
