18

C      -0.609583    1.269611    0.041024
C       0.160232   -0.033844   -0.090600
C       1.564234   -0.040601   -0.746675
C       2.042639   -1.074104    0.301800
C       0.819442   -0.711318    1.202261
C       1.148249    0.338637    2.260311
O       2.152030    1.000226    2.246635
C       0.055341   -1.794339    1.796793
N      -0.561308   -2.650987    2.270132
H      -0.003981    2.053968    0.505490
H      -0.903295    1.624458   -0.952543
H      -1.523666    1.142529    0.630518
H      -0.473043   -0.797380   -0.550920
H       1.609585   -0.332830   -1.797087
H       2.071529    0.918824   -0.620557
H       1.980496   -2.104430   -0.050933
H       3.011202   -0.896421    0.768631
H       0.368724    0.474591    3.038544
