13

O       0.114450    1.304295   -0.013746
C       0.089529   -0.041974   -0.033355
C       0.007702   -0.691897   -1.262874
C      -0.013934   -2.077187   -1.212645
F      -0.091130   -2.759386   -2.351410
C       0.042105   -2.776079   -0.016639
C       0.121806   -1.998575    1.136594
O       0.179196   -2.617421    2.331240
N       0.145720   -0.666322    1.142456
H       0.172192    1.561427    0.916524
H      -0.036024   -0.148472   -2.195427
H       0.025178   -3.855506    0.021187
H       0.229665   -1.918292    2.997216
