16

C      -0.041475    1.557276    0.222000
C      -0.011894    0.047950   -0.011667
O       0.771358   -0.628070    0.957472
C      -1.443001   -0.536752   -0.093201
C      -1.441138   -2.020428   -0.208168
N      -1.482926   -2.696691   -1.320150
O      -1.431797   -3.994356   -0.938314
N      -1.364690   -4.050602    0.451706
N      -1.369852   -2.872386    0.884639
H       0.978660    1.945504    0.273588
H      -0.571796    2.075751   -0.583358
H      -0.547240    1.795578    1.165800
H       0.491723   -0.162981   -0.962123
H       0.359095   -0.514572    1.821653
H      -2.000134   -0.262064    0.810137
H      -1.966154   -0.107989   -0.952079
