18

C       0.007875    1.529300   -0.089571
C      -0.116275    0.007815    0.048576
C       0.699249   -0.551346    1.208053
C       0.791822   -2.072596    1.370394
O       1.512263   -2.584235    0.233393
C       2.262233   -2.060653    1.344628
C       2.292644   -0.541836    1.115026
O       2.894000   -0.118467   -0.077771
H       1.047381    1.814665   -0.271702
H      -0.598437    1.899840   -0.921934
H      -0.330668    2.038839    0.819877
H      -1.168717   -0.269960    0.193029
H       0.200054   -0.477907   -0.880945
H       0.394764   -0.085692    2.152791
H       0.113808   -2.759256    1.864116
H       2.993144   -2.719113    1.799816
H       2.751399    0.023414    1.929032
H       2.620398   -0.752502   -0.753158
