17

O       0.769031   -1.513445   -0.216953
C      -0.131815   -0.594756   -0.796717
C      -1.504159   -0.661240   -0.141260
C      -1.965717   -1.919750    0.448213
O      -1.454221   -0.850718    1.282126
C      -2.557624    0.372220   -0.574359
O      -3.716514    0.274088    0.232325
C      -2.012228    1.737952   -0.568666
C      -1.580077    2.859187   -0.544587
H       0.725171   -1.361022    0.735738
H       0.242627    0.436639   -0.733309
H      -0.218011   -0.851626   -1.858688
H      -3.031263   -2.099113    0.551817
H      -1.317361   -2.788842    0.387748
H      -2.879260    0.124244   -1.593877
H      -3.401466    0.308826    1.146505
H      -1.204881    3.853021   -0.529169
