16

C      -0.012127    1.391383    0.017379
O       0.010160   -0.026273   -0.011368
C       0.605955   -0.623656   -1.056238
C       0.736940   -1.991185   -1.275235
C       0.251409   -3.046072   -0.409688
O       0.380454   -4.235899   -0.626782
C       1.442870   -2.131986   -2.518508
C       1.708788   -0.886834   -2.998074
N       1.190641    0.040837   -2.091967
H       1.003712    1.807590    0.042362
H      -0.558045    1.801020   -0.842848
H      -0.532714    1.669935    0.933642
H      -0.269379   -2.687943    0.505549
H       1.704993   -3.074127   -2.972078
H       2.212467   -0.549175   -3.888454
H       1.242494    1.038342   -2.196094
