19

C       0.093166    1.472491   -0.286376
N       1.538393    1.385451    0.037295
C       1.408346    0.100735    0.564941
N       2.097615   -0.519639    1.416671
C       1.622043   -1.824987    1.864326
C       0.548990   -2.530715    1.012144
C      -0.866680   -1.932858    1.036936
O      -0.961868   -0.530254    0.774629
C       0.026027   -0.066172   -0.093692
H      -0.508528    1.988703    0.469041
H      -0.124257    1.865866   -1.282235
H       2.050308    2.112714    0.519991
H       2.493931   -2.487492    1.932562
H       1.256985   -1.714046    2.896338
H       0.909995   -2.604896   -0.020545
H       0.450569   -3.564795    1.366519
H      -1.489704   -2.481044    0.312594
H      -1.315812   -2.067639    2.026909
H       0.040050   -0.607015   -1.049678
