17

O       0.119373    1.342672    0.115603
C       0.068882   -0.031388    0.051634
C       0.619717   -0.986695    1.120911
C       0.033713   -1.925382    0.028907
C      -1.190346   -0.954431   -0.035947
O      -1.936257   -0.885337   -1.233980
C      -1.191769   -1.397414   -2.312778
O       0.128582   -0.910683   -2.320285
C       0.692050   -0.977513   -1.026274
H      -0.296939    1.688112   -0.683166
H       1.705091   -1.009554    1.241408
H       0.103962   -0.989925    2.083753
H       0.028929   -3.011886    0.045136
H      -1.886862   -0.946324    0.805178
H      -1.176710   -2.498733   -2.258456
H      -1.674233   -1.073610   -3.237398
H       1.779704   -0.991272   -1.123784
