22

C      -0.773841    0.845937    0.288589
N       0.136169   -0.294013    0.235539
C       1.400772   -0.139016   -0.477244
C       1.380368   -0.307549    1.003105
C       1.845788    0.787480    1.948315
O       1.878573    2.017852    1.255253
C       1.100087    0.752154    3.324006
C       2.272900   -0.083381    3.903418
C       3.147996    0.364969    2.703178
H      -0.276088    1.819940    0.360750
H      -1.392703    0.829108   -0.614769
H      -1.442538    0.729935    1.148520
H       1.689073   -0.962897   -1.126261
H       1.659840    0.851978   -0.841672
H       1.600665   -1.296708    1.404294
H       2.095379    2.709377    1.888767
H       1.059042    1.754081    3.765658
H       0.096292    0.322299    3.343595
H       2.625539    0.179972    4.902271
H       2.062853   -1.155524    3.885675
H       3.795203   -0.372525    2.221929
H       3.746477    1.249959    2.942446
