16

O      -0.026289    0.039051    0.066489
C       0.012776    1.238550   -0.025270
N      -1.057967    2.130798   -0.129750
C      -0.404416    3.460628    0.021692
C       0.744779    3.290369   -1.022829
C       1.207365    2.206383    0.001074
C       0.689587    3.185931    1.113018
C      -1.301334    4.585480    0.055806
C      -2.035766    5.535689    0.100224
H      -1.924721    1.932191    0.350175
H       0.446739    2.972285   -2.022937
H       1.412455    4.152417   -1.056013
H       2.197648    1.760685    0.005577
H       1.354870    4.035328    1.279106
H       0.347605    2.763465    2.060701
H      -2.685879    6.375186    0.132436
