22

C       0.491343    1.546040   -0.174594
C       0.034680    0.096500    0.031592
C       0.391843   -0.839666   -1.158343
C       1.519144   -1.766564   -0.657046
C       2.911298   -1.480005   -1.236538
C       1.525463   -1.574768    0.861307
O       2.181906   -2.214345    1.660750
N       0.680923   -0.543518    1.170063
C       0.460977   -0.119405    2.533396
H       1.569791    1.593266   -0.358126
H      -0.023480    1.981578   -1.036979
H       0.265751    2.169420    0.696118
H      -1.051806    0.102815    0.198386
H      -0.486186   -1.421796   -1.448623
H       0.695177   -0.257469   -2.032623
H       1.280496   -2.817454   -0.847959
H       3.197136   -0.432686   -1.088660
H       3.658333   -2.106442   -0.742112
H       2.935286   -1.686943   -2.310876
H       1.001440   -0.812081    3.180970
H       0.832704    0.896523    2.712929
H      -0.607447   -0.143299    2.782172
