14

N      -0.021964    1.224039    0.019664
C      -0.119635   -0.008419   -0.223435
O      -1.051219   -0.739115    0.443959
C      -1.041645   -2.125900    0.193135
C      -2.341461   -2.833169    0.654627
N      -2.515089   -3.267522   -0.738055
C      -1.444896   -2.581001   -1.246948
O      -1.016363   -2.400229   -2.354571
H       0.705406    1.633936   -0.562848
H       0.461868   -0.591829   -0.945149
H      -0.119836   -2.593706    0.556181
H      -2.214427   -3.648802    1.371068
H      -3.099011   -2.128078    1.006076
H      -3.259137   -3.773429   -1.195432
