21

C      -0.015950    1.601488   -0.069109
C       0.096365    0.083234    0.011913
C       1.128248   -0.703329   -0.855302
C       2.525304   -0.128404   -0.482948
C       2.263245   -0.739089    0.890117
O       3.189608   -1.007868    1.879858
C       1.276066   -1.729669    0.339560
C       0.750922   -0.603458    1.215547
C       0.250018   -0.668502    2.627578
H       0.937841    2.098744    0.129875
H      -0.360024    1.918666   -1.060227
H      -0.739799    1.975621    0.663749
H      -0.893818   -0.364793   -0.144021
H       0.902956   -0.962421   -1.887546
H       3.323398   -0.672965   -0.996031
H       2.692935    0.950031   -0.583274
H       3.313950   -0.210206    2.406743
H       1.207888   -2.805072    0.416713
H       0.908385   -1.287411    3.245008
H       0.206861    0.328954    3.083264
H      -0.758519   -1.094552    2.676204
