20

C      -0.053065    1.518059    0.059562
C       0.034798    0.023990    0.020765
C       0.084120   -0.850782   -1.229603
C       1.105936   -1.955605   -1.083362
C       0.989293   -2.180300    0.412751
C       1.729731   -3.288575    1.109835
C       0.644491   -0.901706    1.091535
N      -0.419604   -1.941587    0.878905
C      -0.998474   -1.050629   -0.196315
H       0.936518    1.980905   -0.038663
H      -0.676101    1.894751   -0.758125
H      -0.492682    1.869282    1.000123
H      -0.167883   -0.407427   -2.185335
H       0.842008   -2.853076   -1.654561
H       2.118782   -1.648482   -1.367674
H       2.812682   -3.161641    1.004618
H       1.486412   -3.304744    2.175318
H       1.458939   -4.262918    0.689360
H       0.962707   -0.611574    2.087860
H      -2.067231   -1.022975   -0.365426
