18

C      -0.086836    1.429889   -0.315458
C       1.247326    0.824296    0.002703
C      -0.020682   -0.042213   -0.013857
C       0.533501   -0.821010   -1.198624
O      -0.280819   -0.870434   -2.369749
C       0.091174   -0.115093   -3.434070
N       1.069690    0.665322   -3.592588
C       2.046027    0.867601   -2.527283
C       1.807836    0.086488   -1.224223
H      -0.524021    2.029543    0.476175
H      -0.317051    1.786383   -1.315135
H       1.834872    1.135635    0.857281
H      -0.564436   -0.483276    0.811921
H       0.765709   -1.857315   -0.944505
H      -0.622971   -0.267536   -4.241960
H       3.026886    0.614257   -2.947330
H       2.083319    1.943802   -2.317500
H       2.687964   -0.505954   -0.966006
