19

O      -0.235951    1.532749   -0.161503
C       0.009893    0.138560   -0.022643
C      -1.394921   -0.491652    0.136017
O      -1.446579   -1.893845   -0.014908
C      -0.715228   -2.685419    0.888915
O       0.407137   -3.299708    0.323212
C       1.541285   -2.464172    0.085364
C       1.428064   -1.593366   -1.147214
C       0.764155   -0.438978   -1.187603
H       0.612886    1.985563   -0.163700
H       0.572804   -0.049781    0.904783
H      -1.804341   -0.176904    1.106984
H      -2.038605   -0.082152   -0.647792
H      -0.435819   -2.094149    1.778796
H      -1.361069   -3.516655    1.187790
H       1.733528   -1.848443    0.978228
H       2.381086   -3.155523   -0.021581
H       1.896178   -1.971247   -2.052150
H       0.678504    0.120927   -2.116691
