18

C       0.391222    1.549014    0.018320
C       0.117237    0.058088   -0.036103
C       0.616326   -0.772648   -1.239451
O       1.953101   -0.417901   -1.709347
C       2.559737   -1.358277   -0.890012
O       3.712903   -1.625897   -0.829578
C       1.231464   -1.753038   -0.223281
N       0.938061   -0.793363    0.868828
C       0.336131   -1.295580    2.084360
H       1.438846    1.752864   -0.213771
H      -0.239609    2.084994   -0.698668
H       0.174844    1.942113    1.016722
H      -0.958334   -0.148890    0.096309
H      -0.045228   -1.010299   -2.068797
H       0.973755   -2.802433   -0.075872
H       1.036550   -1.962137    2.596901
H       0.123539   -0.458363    2.756775
H      -0.608286   -1.847072    1.916498
