20

N      -0.062812    1.433002    0.028594
C       0.041686   -0.023530    0.014261
C       0.824138   -0.513425    1.268716
N       0.252600   -0.011404    2.523481
C       0.876354   -2.053318    1.284779
C       1.677779   -2.649867    2.437461
O       1.596312   -4.061533    2.299595
C       2.199167    0.029662    1.151727
N       3.255937    0.473928    1.003077
H       0.813619    1.852283   -0.267654
H      -0.775940    1.746725   -0.619539
H      -0.967980   -0.443306    0.084694
H       0.511243   -0.439614   -0.891121
H       0.003172    0.964918    2.372595
H      -0.618068   -0.508311    2.696580
H      -0.154179   -2.425947    1.339546
H       1.294881   -2.415033    0.340116
H       2.719308   -2.299762    2.384056
H       1.265365   -2.310184    3.396908
H       2.113551   -4.460076    3.005282
