22

C       0.024683    1.479198   -0.097650
C      -0.123554   -0.042813    0.014081
C       0.656222   -0.604459    1.194011
C       0.763098   -2.113537    1.500663
C       2.234616   -1.766953    1.957230
C       2.592641   -1.847991    0.522510
C       1.376496   -2.725026    0.207799
C       1.675568   -4.217257    0.314600
N       2.162925   -0.534176    1.128485
H       1.078522    1.756423   -0.193899
H      -0.512743    1.867862   -0.967873
H      -0.370850    1.981892    0.791863
H      -1.181911   -0.310967    0.136757
H       0.210115   -0.508891   -0.918490
H       0.375502   -0.060763    2.104682
H      -0.002218   -2.654356    2.056958
H       2.794385   -1.850221    2.879230
H       3.571282   -1.856197    0.059064
H       0.838215   -2.522726   -0.724686
H       2.189432   -4.453274    1.252892
H       0.751574   -4.804141    0.276940
H       2.314678   -4.552564   -0.509568
