20

C       0.014436    1.549645   -0.063468
C       0.001792    0.030724    0.118722
O       0.644548   -0.359847    1.322508
C      -1.414729   -0.553132    0.059043
C      -1.496017   -2.083003    0.154116
C      -2.820454   -2.300566    0.896044
C      -2.955387   -1.047515    1.732275
N      -3.697186   -0.897836    2.741428
O      -2.135651   -0.072872    1.220528
H       1.036990    1.925396    0.020796
H      -0.381585    1.833022   -1.044472
H      -0.600456    2.033575    0.702017
H       0.582421   -0.437227   -0.686093
H       0.088626   -0.039760    2.043697
H      -1.931542   -0.180902   -0.836065
H      -1.459182   -2.558203   -0.828131
H      -0.652047   -2.442386    0.749397
H      -3.666601   -2.351490    0.200737
H      -2.855487   -3.192897    1.521352
H      -3.615321    0.050921    3.111425
