18

C      -0.243833    1.479326   -0.107996
C      -0.026880   -0.028132   -0.099560
C       1.212432   -0.548476   -0.800891
N       1.669724   -0.468152   -1.963759
O       1.722896   -1.160360    0.330889
C       0.604412   -0.702263    1.142044
C       0.936857    0.003173    2.464825
O       0.155460   -0.955141    3.208426
C      -0.097543   -1.741343    2.025717
H       0.651058    2.014043    0.224159
H      -0.474319    1.814430   -1.122684
H      -1.076592    1.761376    0.543746
H      -0.930410   -0.549270   -0.431565
H       2.566372   -0.949772   -2.050173
H       2.003312   -0.033460    2.719034
H       0.563495    1.026050    2.588243
H      -1.169220   -1.890556    1.846915
H       0.412210   -2.712491    2.047463
