21

O       0.013461    1.416197   -0.000108
C       0.037920   -0.002172   -0.019994
C      -1.401707   -0.495318    0.028059
C      -1.496617   -2.018465    0.011275
C      -2.923110   -2.547965    0.056945
O      -3.886045   -1.810036    0.102056
C      -3.073490   -4.033242    0.043168
C      -4.239352   -4.624275    0.823829
C      -4.294603   -4.604899   -0.663942
H       0.920473    1.733912   -0.028902
H       0.532462   -0.379707   -0.931149
H       0.599753   -0.403410    0.840607
H      -1.886437   -0.101882    0.926926
H      -1.952858   -0.078562   -0.820615
H      -1.015611   -2.438984   -0.884516
H      -0.951171   -2.462243    0.857546
H      -2.156976   -4.611390    0.001644
H      -4.066709   -5.565572    1.332668
H      -4.854881   -3.907319    1.354818
H      -4.947091   -3.874913   -1.128954
H      -4.161169   -5.532463   -1.208535
