18

O      -0.013420    1.414241    0.011133
C       0.030019    0.006431    0.042055
C      -1.363661   -0.601774   -0.057470
C      -1.391719   -2.126770   -0.048062
C      -2.800484   -2.600427    0.170604
C      -3.704940   -1.808553    0.752207
C      -3.354397   -0.480945    1.285910
N      -4.095712    0.277463    1.986959
O      -2.078648   -0.057971    1.067887
H      -0.652370    1.679017    0.684302
H       0.631768   -0.318350   -0.813470
H       0.513529   -0.368987    0.959078
H      -1.846377   -0.234208   -0.973935
H      -1.001524   -2.504033   -1.000221
H      -0.732390   -2.522751    0.738092
H      -3.067969   -3.602798   -0.151221
H      -4.729106   -2.131185    0.907125
H      -5.002393   -0.163568    2.134178
