18

C       0.035360    1.558636    0.085644
C       0.011253    0.058371    0.060660
C      -1.241666   -0.812875    0.035129
N      -0.486780   -1.926832    0.760987
C       0.621636   -0.955156    1.001171
C       1.223429   -0.784104   -0.365596
C       1.045129   -2.077192   -1.129906
C      -0.034089   -2.811485   -0.306266
O      -0.497098   -3.890832   -0.527531
H       1.026405    1.935644    0.357829
H      -0.218821    1.976858   -0.895214
H      -0.683208    1.952148    0.813397
H      -2.034956   -0.434210    0.685266
H      -1.676931   -1.098430   -0.930236
H       1.109738   -0.880520    1.964426
H       2.149576   -0.227134   -0.452056
H       0.693286   -1.976963   -2.161831
H       1.968798   -2.665024   -1.160592
