16

N       0.633804    0.080313   -0.852832
C      -0.343228    0.604326   -0.082984
O      -0.314336    1.703741    0.438486
C      -1.553095   -0.352724    0.097182
O      -1.422046   -1.535327   -0.647011
C      -1.719401   -0.694051    1.582904
O      -1.550719   -1.843954    1.931944
C      -2.189782    0.405492    2.522998
O      -3.545197    0.712335    2.210346
H       1.433636    0.645956   -1.081790
H       0.473087   -0.806280   -1.302430
H      -2.437339    0.215962   -0.217920
H      -1.352646   -2.240412    0.021392
H      -2.061370    0.068912    3.558518
H      -1.613150    1.314575    2.340689
H      -4.086278   -0.036738    2.483246
