19

C      -0.100504    1.493191   -0.020845
N       0.076578    0.053315    0.019052
C       0.772495   -0.550501   -1.094482
C       1.082032   -1.978261   -0.795864
C       2.237218   -0.993671   -0.945643
N       2.652137   -1.151083    0.475400
C       2.203600   -0.012626    1.345568
C       0.728800   -0.486206    1.210976
C       1.332029   -1.857120    0.712352
H       0.837308    2.075526   -0.014667
H      -0.654738    1.764021   -0.925275
H      -0.697603    1.807746    0.841513
H       0.438501   -0.261746   -2.085295
H       0.781442   -2.845654   -1.366086
H       2.978180   -0.887659   -1.731905
H       2.614961   -0.144868    2.351534
H       2.458630    0.986960    0.983487
H       0.074019   -0.435393    2.086354
H       1.331138   -2.721129    1.375518
