21

C      -0.000196    1.518811    0.249946
O       0.046626    0.108191    0.256225
C      -1.181033   -0.572451    0.012672
C      -2.256123   -0.234739    1.053202
C      -1.692052   -0.340283   -1.446951
O      -2.230394   -1.572822   -1.909414
C      -1.592932   -2.609076   -1.203755
C      -0.090677   -2.626169   -1.127428
C      -0.914957   -2.070362    0.020248
H       1.033249    1.864451    0.334972
H      -0.422911    1.923666   -0.681550
H      -0.570946    1.928720    1.094707
H      -2.547232    0.818954    1.016424
H      -3.152726   -0.831326    0.860382
H      -1.898424   -0.459553    2.062609
H      -2.480528    0.413233   -1.524243
H      -0.843816   -0.021954   -2.069112
H      -2.165140   -3.528554   -1.231489
H       0.382744   -3.588612   -0.966412
H       0.488980   -1.938801   -1.732395
H      -0.931178   -2.584729    0.973712
