15

N      -0.155346    1.240257   -0.356085
C      -0.053519    0.005558   -0.108932
C      -1.200151   -0.886340    0.241543
O      -1.317482   -2.000172   -0.667100
C      -0.663371   -2.210792    0.577540
C       0.847228   -2.165192    0.457717
N       1.106389   -0.823370   -0.088286
C       2.356788   -0.430490   -0.490164
O       2.652447    0.677048   -0.881894
H       0.758893    1.642366   -0.568924
H      -2.122679   -0.460117    0.616289
H      -1.136300   -2.897434    1.272361
H       1.315252   -2.288328    1.441804
H       1.225612   -2.943657   -0.212517
H       3.092183   -1.254775   -0.413178
