17

O       0.038490    0.062269    0.034930
C      -0.007493    1.262579    0.026341
C      -1.214844    2.225864    0.013555
C      -0.813691    3.252829    1.103236
C       0.252665    3.535010    0.016209
O      -0.754889    3.183734   -0.998120
C       1.112969    2.278201    0.018119
C       2.413755    2.041000    0.740962
C       2.381437    2.060167   -0.760756
H      -2.215366    1.826616   -0.136081
H      -1.549674    4.053972    1.181824
H      -0.489821    2.898298    2.084934
H       0.724042    4.505715   -0.133633
H       2.864047    2.882255    1.257959
H       2.526093    1.082334    1.236981
H       2.470826    1.113589   -1.283269
H       2.806684    2.914060   -1.277617
