18

C      -0.009818    1.448361   -0.025689
C      -0.032985   -0.050282    0.045602
O       0.296260   -0.715929   -1.212434
C      -0.435832   -1.831568   -0.698296
C       0.196141   -2.204769    0.680153
C       0.766512   -0.814905    1.126920
C      -0.218579   -0.917675    2.311311
N      -1.071946   -1.798354    1.438269
C      -1.324517   -0.965037    0.213293
H       0.985691    1.799746   -0.317613
H      -0.729284    1.815733   -0.762850
H      -0.256296    1.886604    0.946345
H      -0.730240   -2.579915   -1.430534
H       0.685793   -3.142524    0.935668
H       1.827054   -0.582317    1.225878
H       0.161745   -1.495093    3.158345
H      -0.701899   -0.005363    2.678824
H      -2.324464   -0.584682    0.011951
