25

C      -0.076293    1.536542    0.206851
C      -0.013902    0.027071   -0.053177
C       0.775355   -0.442634   -1.308275
C       2.206654    0.139178   -1.279634
C       0.828279   -1.990457   -1.275160
C       1.157569   -2.614528   -2.635764
C       0.100651   -2.230442   -3.679488
C      -0.242174   -0.766291   -3.601788
C       0.068794    0.016166   -2.568557
H       0.915460    1.963814    0.381530
H      -0.532899    2.081570   -0.625315
H      -0.680415    1.740605    1.096691
H       0.434138   -0.461727    0.822838
H      -1.036026   -0.364269   -0.130173
H       2.692345   -0.069042   -0.318701
H       2.822484   -0.293532   -2.073084
H       2.205312    1.223146   -1.427868
H       1.555147   -2.311622   -0.519235
H      -0.148930   -2.368339   -0.945557
H       2.141582   -2.269916   -2.976009
H       1.225698   -3.704065   -2.544571
H       0.451125   -2.477379   -4.689582
H      -0.811214   -2.829474   -3.533288
H      -0.773063   -0.339987   -4.450653
H      -0.193245    1.071271   -2.612594
