17

N       0.304398    1.090861    0.282771
C       0.182767   -0.112473   -0.062660
C      -0.901893   -1.073206    0.371838
O      -0.749094   -2.183749   -0.497231
C       0.572437   -2.158247   -0.996514
O       1.018571   -0.802422   -0.901583
C       1.497358   -3.093218   -0.242426
C       2.963405   -2.882024   -0.268052
N       2.200056   -2.674145    0.975938
H       1.130430    1.517444   -0.138668
H      -0.768568   -1.352409    1.426167
H      -1.898106   -0.644628    0.244602
H       0.532255   -2.432757   -2.056870
H       1.107220   -4.107849   -0.205970
H       3.631631   -3.737787   -0.261887
H       3.335526   -2.006821   -0.792706
H       2.079929   -1.674363    1.122236
