21

C       0.011606    1.613446    0.137177
C      -0.028574    0.077964    0.031944
C       0.652960   -0.462119   -1.191243
C       0.082231   -0.777029   -2.413664
C      -1.325612   -0.699499   -2.907448
N       1.103630   -1.208169   -3.199421
N       2.301521   -1.202750   -2.578166
C       2.037657   -0.747218   -1.356363
C       3.136044   -0.604446   -0.349600
H       1.042828    1.980020    0.151170
H      -0.490066    2.077451   -0.718026
H      -0.482845    1.959635    1.050941
H       0.437461   -0.352265    0.927045
H      -1.074197   -0.253089    0.052101
H      -1.498177    0.189397   -3.526392
H      -1.590314   -1.576042   -3.509178
H      -2.022554   -0.652738   -2.067135
H       1.049300   -1.534001   -4.149354
H       3.289594    0.440905   -0.057603
H       2.917843   -1.165026    0.566789
H       4.071360   -0.981960   -0.768345
