21

C       0.215438    1.478957    0.223686
C      -0.155122    0.026872   -0.108037
C       0.536085   -0.479288   -1.340707
N       1.935261   -0.925635   -1.263593
C       0.934371   -1.883887   -1.752433
C       0.746682   -3.197531   -1.056992
C       0.541368   -1.559764   -3.185010
N      -0.893494   -1.166996   -3.166535
C       0.152440   -0.180721   -2.782560
H       1.292844    1.573467    0.391376
H      -0.059558    2.156898   -0.591914
H      -0.300315    1.820369    1.126321
H       0.110026   -0.619176    0.735789
H      -1.237807   -0.063509   -0.255717
H       2.505710   -0.545528   -2.016774
H       0.869679   -3.084723    0.023178
H      -0.252579   -3.594782   -1.259787
H       1.483819   -3.933421   -1.399477
H       1.015098   -1.893439   -4.101755
H      -1.164841   -0.962416   -4.130937
H       0.271606    0.745672   -3.333264
