16

N       0.205996    1.436171    0.122404
C       0.052020    0.036566    0.087643
C      -1.014733   -0.825287    0.104753
N      -0.616969   -2.158324   -0.044894
C       0.672314   -2.062106   -0.128977
O       1.642908   -2.978381   -0.355377
C       2.896756   -2.270113   -0.245113
C       2.567956   -0.750815   -0.365660
N       1.160825   -0.798964   -0.041668
H       0.365102    1.788418    1.062807
H      -0.621469    1.894559   -0.239393
H      -2.057694   -0.571152    0.221297
H       3.338961   -2.495476    0.731598
H       3.561270   -2.629059   -1.032228
H       3.149824   -0.151943    0.339152
H       2.734821   -0.359188   -1.376101
