17

O      -0.095337    1.353530    0.041191
C       0.011899   -0.055232    0.015012
C       0.669240   -0.683343    1.287703
C      -0.035839   -2.021394    1.462398
N      -1.346353   -1.893261    2.129851
C      -1.290827   -2.011426    0.659085
C      -1.415327   -0.670391   -0.048919
C       0.786137   -0.475023   -1.177980
N       1.414815   -0.784809   -2.097530
H       0.789497    1.733950    0.002394
H       1.751260   -0.786151    1.177580
H       0.459084   -0.020860    2.131919
H       0.544680   -2.925730    1.606629
H      -1.609817   -2.791097    2.530623
H      -1.675256   -2.909043    0.187831
H      -2.087232    0.000140    0.493010
H      -1.766936   -0.761242   -1.077934
