19

O       0.315322    1.181868    0.387225
C       0.007816   -0.184555    0.274941
C      -1.479517   -0.401850   -0.095549
O      -1.741523    0.359820   -1.255884
C      -1.823760   -1.896311   -0.188161
C      -2.018311   -2.336869    1.288270
C      -2.592175   -1.097257    2.021421
C      -2.403975    0.049886    1.039435
O      -2.978799    1.111009    1.023426
H      -0.037736    1.588893   -0.414564
H       0.609582   -0.680093   -0.505059
H       0.254779   -0.652409    1.233242
H      -2.371882    1.043382   -0.974784
H      -2.755237   -2.002856   -0.754595
H      -1.054574   -2.476202   -0.705481
H      -2.679205   -3.202382    1.367489
H      -1.059625   -2.631261    1.724209
H      -3.658961   -1.183324    2.247984
H      -2.088881   -0.878101    2.968516
