19

C       0.267618    1.503188   -0.456768
O       1.642608    1.395647   -0.035156
C       1.420109    0.085132    0.525712
C      -0.028257    0.048111   -0.043768
C      -0.065901   -1.015936   -1.164263
C       1.370770   -1.532920   -1.342551
C       2.403798   -0.762221   -2.202366
O       3.258516   -0.544152   -1.058883
C       2.242949   -1.030107   -0.165888
H      -0.273288    2.263837    0.121032
H       0.177418    1.738965   -1.524753
H       1.539279    0.092429    1.615170
H      -0.845279   -0.068621    0.669239
H      -0.719459   -1.843148   -0.869427
H      -0.479731   -0.609771   -2.094223
H       1.408836   -2.608533   -1.520459
H       2.912766   -1.338740   -2.982774
H       2.043961    0.182786   -2.628437
H       2.642393   -1.753385    0.553294
