22

C      -0.032806    1.314129   -0.262219
C       0.410407   -0.151386   -0.345698
C       0.877705   -0.705653    0.986586
C       0.034465   -1.171703    2.175850
N      -1.159177   -1.945336    1.862265
C      -2.370664   -1.322151    1.370017
C      -0.383901   -2.892929    1.024113
C       0.906639   -2.150946    1.411167
O       2.044268   -2.798982    1.860002
H       0.777261    1.950824    0.110188
H      -0.331689    1.695016   -1.243946
H      -0.881991    1.430897    0.418702
H      -0.403949   -0.758850   -0.751534
H       1.234049   -0.238718   -1.067956
H       1.766506   -0.201666    1.371195
H       0.166526   -0.742399    3.164182
H      -2.272796   -0.796824    0.405313
H      -3.150205   -2.084201    1.258795
H      -2.723610   -0.597149    2.111199
H      -0.417828   -3.915739    1.415467
H      -0.642306   -2.907870   -0.043816
H       2.668377   -2.853558    1.128530
