15

C       0.015801    1.556594    0.146525
O       1.392113    1.939782    0.037407
C       2.098839    1.018785   -0.802402
C       1.329268   -0.270051   -0.687286
O       0.992908   -0.671582    0.641093
C       0.014179    0.069486   -0.088196
C      -0.676314   -0.856536   -1.087654
O      -0.323730   -0.401446   -2.402223
C       0.632661   -1.194494   -1.683958
H      -0.325270    1.871227    1.136575
H      -0.608062    2.038972   -0.620402
H       2.101311    1.339454   -1.854655
H       3.128560    0.979499   -0.436815
H      -1.573302   -1.453161   -0.984803
H       0.975370   -2.111191   -2.145851
