23

C       0.069855    1.374323    0.102951
O      -0.095579   -0.013705   -0.065020
C       0.615261   -0.573684   -1.156100
C       2.132462   -0.652116   -0.920000
C       2.800594   -1.413002   -2.071045
O       2.224756   -2.691402   -2.267325
C       0.844310   -2.603146   -2.580292
C       0.032526   -1.970711   -1.437710
C      -0.000082   -2.876930   -0.199488
H       1.092229    1.648782    0.400922
H      -0.180175    1.927732   -0.816404
H      -0.614574    1.685613    0.896236
H       0.441289    0.051283   -2.051610
H       2.570655    0.349541   -0.848528
H       2.327138   -1.164713    0.027764
H       2.726752   -0.821636   -3.001334
H       3.862108   -1.580176   -1.867295
H       0.708051   -2.021461   -3.509008
H       0.507664   -3.626378   -2.772600
H      -0.996230   -1.828724   -1.792470
H       1.007675   -3.175642    0.101177
H      -0.477794   -2.367551    0.639495
H      -0.562855   -3.790966   -0.416145
