21

C       0.114961    1.601842    0.290925
C       0.045949    0.087800    0.072400
C       0.932216   -0.377806   -1.140205
C       1.846285   -1.498376   -0.609285
C       2.018187   -1.162793    0.877493
O       2.885046   -0.047783    1.075417
C       0.612263   -0.717803    1.287159
C      -1.383049   -0.355566   -0.181390
O      -2.352415    0.357206   -0.193580
H       1.141757    1.892849    0.523846
H      -0.216356    2.140169   -0.601978
H      -0.535535    1.907113    1.115052
H       0.332278   -0.709246   -1.994107
H       1.524877    0.473849   -1.482132
H       1.360985   -2.477490   -0.701915
H       2.801231   -1.562897   -1.142195
H       2.364743   -2.024170    1.466336
H       3.748138   -0.272555    0.713497
H       0.624079   -0.122572    2.202695
H       0.005222   -1.611210    1.478736
H      -1.481820   -1.453291   -0.371952
