16

C       1.042579    1.206373   -0.646244
C       0.125507    0.152605   -0.081816
N       0.732541   -1.106816    0.369218
C       0.091030   -0.235729    1.366689
C       0.986761    0.336575    2.387120
C       2.319069    0.174474    2.606115
O       2.677048    0.893405    3.666689
N       1.485745    1.533889    4.134500
N       0.543495    1.191031    3.377188
H       1.968102    1.274338   -0.070147
H       1.305269    0.969592   -1.682391
H       0.555550    2.186876   -0.633750
H      -0.838032    0.074321   -0.584277
H       0.138369   -1.902667    0.156776
H      -0.884556   -0.519765    1.755075
H       3.076550   -0.403638    2.105375
