20

O      -0.286103    1.810443   -0.473608
C      -0.269606    0.498692    0.045576
C      -1.682873   -0.077505    0.139426
N      -2.282322   -0.007001   -1.195169
C      -2.311969   -1.216640   -2.012429
C      -3.573414   -0.629513   -1.477503
C      -4.384907   -1.352143   -0.414733
C      -5.189638   -0.388653    0.436584
O      -5.192272   -0.375210    1.639560
H      -0.911993    1.778738   -1.209949
H       0.353923   -0.172064   -0.570902
H       0.181632    0.542439    1.042554
H      -1.646696   -1.097862    0.552042
H      -2.281327    0.542013    0.815966
H      -2.044669   -1.101847   -3.059403
H      -1.965900   -2.142346   -1.553522
H      -4.185144   -0.039836   -2.160574
H      -5.102172   -2.010110   -0.927375
H      -3.771032   -1.973298    0.240496
H      -5.805137    0.335052   -0.147773
