13

N      -0.078909    1.278870    0.160858
C      -0.000561    0.019910    0.048092
N      -1.149120   -0.746186   -0.091033
C      -1.201011   -2.110924   -0.209096
O      -2.232627   -2.729214   -0.326828
C       0.135562   -2.834092   -0.177567
O       1.330674   -2.052072   -0.072542
C       1.330715   -0.716852    0.051650
O       2.360931   -0.112349    0.158183
H       0.866848    1.656620    0.248404
H      -2.031851   -0.247534   -0.102623
H       0.117858   -3.527402    0.668795
H       0.213091   -3.429162   -1.091741
