19

C      -0.172798    1.446104   -0.005302
O       0.085704    0.052535    0.028646
C       0.669667   -0.508476   -1.143014
C       0.547941   -2.036728   -0.972347
C      -0.010864   -0.088131   -2.371628
C      -0.596216    0.252154   -3.363920
C       2.198196   -0.186886   -1.222209
C       2.911503    0.023287    0.099982
O       2.771506   -0.167443   -2.281551
H       0.732812    2.035906   -0.207919
H      -0.924354    1.698827   -0.761682
H      -0.549775    1.709757    0.985186
H      -0.508673   -2.303414   -0.905005
H       0.998044   -2.547530   -1.825613
H       1.047605   -2.352120   -0.052703
H      -1.098420    0.553040   -4.250343
H       2.541962   -0.649305    0.876799
H       3.983698   -0.107583   -0.052752
H       2.730078    1.043245    0.456355
