14

N      -0.061448    1.217219   -0.025835
C       0.088289   -0.113888   -0.197107
O       1.142418   -0.705500   -0.323574
C      -1.286352   -0.826573   -0.190280
O      -2.311884   -0.220471    0.056175
N      -1.233001   -2.140154   -0.558410
C      -0.464560   -3.219650    0.009723
C      -1.970426   -3.234862    0.020883
H       0.747802    1.812140    0.019999
H      -0.991113    1.583106    0.104186
H       0.078178   -3.836985   -0.699467
H       0.054930   -3.028105    0.943153
H      -2.484264   -3.039533    0.958448
H      -2.506426   -3.869429   -0.678683
