20

C      -0.172116    1.363415   -0.233177
C       1.241463    1.018059    0.166676
C       0.224765   -0.076550   -0.031996
N      -0.261224   -0.751071    1.124674
C       0.441129   -1.985061    1.569563
C      -0.917402   -2.692888    1.729910
O      -1.602890   -2.403841    2.963113
C      -2.367859   -1.333080    2.349041
C      -1.561552   -1.461528    1.047543
H      -0.808967    1.805440    0.523926
H      -0.356417    1.707397   -1.244699
H       2.030084    1.124502   -0.569542
H       1.534994    1.229228    1.188051
H       0.339235   -0.678312   -0.941477
H       1.050163   -2.443392    0.775188
H       1.046812   -1.871061    2.473983
H      -1.008517   -3.738751    1.430127
H      -3.428191   -1.606400    2.265909
H      -2.261604   -0.382067    2.880695
H      -2.069890   -1.445659    0.081678
