16

O       0.322655    0.363114    0.811913
C      -0.166673    0.244885   -0.531928
C      -1.488824   -0.519151   -0.607087
C      -1.396143   -1.938823   -0.015482
O      -1.096438   -1.947120    1.361931
C      -2.754538   -2.676096   -0.127765
O      -3.587937   -2.421457   -0.949142
C      -0.405873   -2.747923   -0.772634
N       0.363139   -3.382134   -1.358447
H      -0.205520    1.028158    1.266927
H      -0.277206    1.234878   -0.990802
H       0.615240   -0.289179   -1.079870
H      -2.269056    0.012324   -0.050030
H      -1.825566   -0.587787   -1.645791
H      -0.395616   -1.284534    1.492976
H      -2.877433   -3.453074    0.653307
