23

O       0.267913    1.282850   -0.453723
C       0.027046   -0.069011   -0.074518
C       0.783296   -0.456094    1.213015
C       0.574565    0.471330    2.425731
C      -0.845417    0.580446    3.008410
C      -1.896947    1.170066    2.049258
C      -2.389630    0.166428    1.022086
C      -2.541528    0.497842   -0.443844
C      -1.454460   -0.442011    0.004562
H       0.201509    1.837541    0.328686
H       0.455001   -0.651825   -0.899530
H       0.494223   -1.480196    1.481702
H       1.856457   -0.480073    0.988877
H       1.248923    0.129469    3.219976
H       0.931893    1.482457    2.176623
H      -1.182812   -0.409566    3.343525
H      -0.790496    1.204128    3.909362
H      -2.754780    1.533660    2.628109
H      -1.485706    2.060785    1.555753
H      -3.129046   -0.522510    1.424836
H      -3.391315    0.098922   -0.987144
H      -2.214953    1.479374   -0.770040
H      -1.615292   -1.498408   -0.197989
