18

C      -0.011459    1.441094   -0.010416
N      -0.046690   -0.002762   -0.000695
C       0.051836   -0.806212   -1.121341
C       0.104849   -2.111735   -0.685172
O       0.184558   -3.267399   -1.414079
C       0.043582   -2.112849    0.734343
C       0.050817   -3.314375    1.622802
O       0.089013   -2.876427    2.975381
C      -0.044657   -0.792175    1.117056
H       0.999907    1.827576   -0.188830
H      -0.674188    1.832573   -0.788585
H      -0.359829    1.814387    0.954957
H       0.072169   -0.385092   -2.113914
H       0.227234   -3.043837   -2.348398
H      -0.843654   -3.932433    1.434961
H       0.919899   -3.950607    1.385767
H       0.042607   -3.654552    3.537340
H      -0.100106   -0.365433    2.104483
