19

C      -0.008690    1.532860    0.002563
C      -0.010609    0.014315    0.088145
O       0.086655   -0.574716    1.148506
N      -0.148054   -0.635183   -1.111780
C      -0.177886   -2.071580   -1.222846
C      -1.417191   -2.809989   -1.814018
N      -0.560072   -3.565648   -2.796350
C       0.021597   -2.533119   -3.664776
C       0.630121   -2.734829   -2.332295
H       0.097116    1.916650   -1.015683
H      -0.944777    1.911693    0.424033
H       0.806538    1.916014    0.619776
H      -0.206710   -0.088330   -1.955004
H       0.074377   -2.455916   -0.235159
H      -1.899060   -3.493642   -1.113454
H      -2.178573   -2.182877   -2.290528
H       0.556740   -2.940267   -4.517118
H      -0.563150   -1.641563   -3.889333
H       1.617942   -3.168222   -2.212294
