19

C       0.063502    1.471154    0.040593
C       0.022829    0.015963    0.016448
C      -0.027178   -1.187443   -0.011877
C      -0.039202   -2.657918   -0.050178
C      -1.472868   -3.199375   -0.022924
O       0.527504   -3.132484   -1.270947
C       0.788246   -3.182219    1.168830
C       0.881122   -4.633644    1.237262
C       0.958381   -5.831013    1.306256
H       0.931802    1.838561    0.598311
H       0.120816    1.881666   -0.973440
H      -0.834382    1.883219    0.513976
H      -2.021868   -2.823313   -0.888340
H      -1.447528   -4.290682   -0.061443
H      -1.987038   -2.883613    0.888172
H       1.364198   -2.674040   -1.404948
H       1.793310   -2.746920    1.106696
H       0.340797   -2.787431    2.088696
H       1.029319   -6.888824    1.362810
