16

O       0.083376    1.368789    0.263014
C      -0.003768   -0.019430    0.068997
C      -0.699587   -0.852064    1.121462
C      -1.393998   -0.541348   -0.182140
C       1.137438   -0.591121   -0.677827
C       2.156037    0.070488   -1.323975
N       2.912338   -0.929013   -1.840628
N       2.407955   -2.137480   -1.543776
N       1.333065   -1.933973   -0.836802
H       0.717719    1.524313    0.972220
H      -0.333120   -1.859394    1.280323
H      -1.036646   -0.322627    2.005828
H      -2.185725    0.198593   -0.168932
H      -1.502619   -1.339146   -0.907219
H       2.378842    1.113901   -1.459532
H       3.757036   -0.868511   -2.386267
