18

O       0.549999    0.856026   -0.872083
C       0.102988   -0.212341   -0.074536
C       0.178805   -0.136994    1.480132
C      -1.247221   -0.758446    1.576380
C      -2.362399    0.281004    1.826294
C      -2.358663    0.645045    0.309458
C      -1.401270   -0.556618    0.027401
O      -1.902570   -1.584398   -0.778642
H       0.168862    1.669330   -0.524833
H       0.627577   -1.099904   -0.442683
H       0.991009   -0.704925    1.937358
H       0.225274    0.889994    1.859628
H      -1.320421   -1.738523    2.045781
H      -3.305648   -0.176477    2.134501
H      -2.122676    1.085074    2.528065
H      -3.324017    0.531313   -0.187308
H      -1.962882    1.635307    0.059433
H      -1.868532   -1.286994   -1.695469
