19

O       0.203169    0.216771    0.858774
C       0.113352    1.242307    0.217321
N       1.102022    1.786736   -0.541239
C       2.436204    1.215122   -0.640799
C       3.494047    2.010882    0.137595
C       4.873345    1.399801    0.019018
C       5.753024    1.720783   -1.165822
C       6.106820    2.244746    0.204531
H      -0.813073    1.850138    0.177771
H       0.913893    2.664399   -0.999283
H       2.360611    0.198939   -0.246486
H       2.723349    1.144143   -1.696554
H       3.521219    3.044735   -0.233508
H       3.189658    2.064245    1.190092
H       4.940887    0.380437    0.391760
H       6.362964    0.931470   -1.590822
H       5.379220    2.431996   -1.896024
H       5.970343    3.304881    0.392448
H       6.956927    1.810567    0.718762
