20

O       0.078439    1.371135   -0.078716
C       0.051921   -0.031964    0.003012
C       0.783497   -0.679349   -1.196557
C       1.056714   -2.137044   -0.700312
C       0.445989   -2.145824    0.731714
C       0.773971   -0.712486    1.193125
C      -1.070192   -2.076030    0.521594
N      -1.791373   -1.108830    1.383235
C      -1.328726   -0.700099    0.034860
H      -0.405604    1.714755    0.679982
H       0.179571   -0.645930   -2.107954
H       1.708142   -0.130232   -1.393519
H       0.600054   -2.891797   -1.348055
H       2.128911   -2.349784   -0.661589
H       0.796419   -2.960199    1.368488
H       1.845761   -0.498990    1.186107
H       0.346757   -0.454834    2.161528
H      -1.604017   -2.936998    0.132084
H      -2.785583   -1.317584    1.327669
H      -2.050687   -0.468774   -0.741874
