19

C      -0.527652    1.436363   -0.277485
C       0.106352    0.096699    0.040177
O       0.599033   -0.458532   -1.200890
C       1.180966   -1.664138   -1.112171
O       1.305504   -2.287984   -0.085663
C       1.653765   -2.164102   -2.466517
C       3.177799   -2.419010   -2.424855
C       0.958285   -3.488204   -2.775881
O       0.492051   -3.764713   -3.848313
H       0.202099    2.119516   -0.720831
H      -1.359348    1.318709   -0.977555
H      -0.911323    1.890305    0.640911
H       0.943768    0.190683    0.738413
H      -0.608983   -0.605560    0.478564
H       1.399239   -1.450248   -3.251115
H       3.423243   -3.124510   -1.627008
H       3.518241   -2.825875   -3.380424
H       3.715285   -1.486020   -2.234490
H       0.946662   -4.200345   -1.922903
