21

C      -0.348719    1.435147    0.032666
C      -0.023264   -0.052917   -0.023409
C       1.308138   -0.427223   -0.716245
O       1.863749   -0.951348    0.509925
C       0.637763   -0.698268    1.204878
C       0.738838   -0.359674    2.654504
C      -0.628998   -0.029949    3.262062
C      -1.184701   -1.400091    2.749143
C       0.195126   -1.738451    2.176905
H       0.479695    2.001017    0.471277
H      -0.529458    1.827188   -0.974423
H      -1.244992    1.631492    0.628354
H      -0.881275   -0.619773   -0.396306
H       1.243530   -1.197162   -1.494271
H       1.891751    0.420845   -1.095178
H       1.704905   -0.117780    3.082602
H      -0.596876    0.007939    4.353268
H      -1.122539    0.878268    2.903400
H      -1.486078   -2.058478    3.566418
H      -2.005042   -1.358347    2.023672
H       0.679869   -2.707697    2.188125
