14

N      -0.092771    1.294987    0.013589
C       0.078161   -0.053816   -0.008448
O       1.134554   -0.638689   -0.005510
O      -1.143397   -0.665525   -0.094175
C      -1.095568   -2.083202   -0.023935
C      -1.083951   -2.547886    1.446166
O      -0.994891   -1.795739    2.373159
C      -2.235979   -2.659473   -0.720527
C      -3.180204   -3.187651   -1.241569
H       0.714564    1.840996    0.260689
H      -1.001421    1.662500    0.240291
H      -0.151523   -2.435145   -0.464523
H      -1.157502   -3.649568    1.562692
H      -4.010187   -3.643274   -1.723629
