15

C       0.213121    1.635058    0.828956
C      -0.210774    0.440020   -0.038455
C       0.472810   -0.793641    0.363178
N       1.024797   -1.749039    0.705109
C      -1.729853    0.224266    0.006423
O      -2.484268    0.808138    0.729940
O      -2.087668   -0.707230   -0.918150
C      -3.416525   -1.082138   -0.985822
N      -3.747735   -1.870230   -1.903477
H       1.293240    1.779177    0.764725
H      -0.290248    2.539357    0.481424
H      -0.062209    1.468733    1.871537
H       0.044608    0.619706   -1.090356
H      -4.022962   -0.629600   -0.201796
H      -4.742864   -2.081002   -1.841270
