17

C       1.054318    0.891373    0.082716
O       0.771308   -0.439598   -0.297086
C      -0.133679   -0.529384   -1.372630
C      -0.279220   -1.998387   -1.744402
N       0.944166   -2.555501   -2.299324
C       2.159236   -2.743062   -1.752241
N       2.961037   -3.264290   -2.655385
N       2.207614   -3.392635   -3.780678
N       1.003035   -2.973804   -3.584772
H       1.508083    1.459484   -0.742691
H       0.145845    1.418362    0.410590
H       1.759334    0.847575    0.915267
H      -1.123205   -0.133235   -1.091171
H       0.224610    0.046116   -2.240920
H      -0.565139   -2.572713   -0.858200
H      -1.046949   -2.124870   -2.509376
H       2.402117   -2.483203   -0.736594
