17

O      -0.152268    1.460095    0.152538
C       0.011221    0.068877    0.039070
C      -1.331405   -0.672705   -0.188438
C      -1.119908   -2.190138   -0.361984
O      -2.287773   -2.831781   -0.837626
C      -3.090540   -3.439692    0.071580
N      -4.166640   -3.968736   -0.309506
C      -2.235310   -0.385037    0.927088
N      -2.899909   -0.141518    1.841552
H      -0.632657    1.645590    0.967768
H       0.646644   -0.098866   -0.835872
H       0.521389   -0.362106    0.913882
H      -1.788155   -0.283126   -1.104771
H      -0.346777   -2.350043   -1.119133
H      -0.776966   -2.638891    0.578819
H      -2.690527   -3.412371    1.093543
H      -4.647802   -4.391850    0.481069
