14

N      -0.059520   -1.166611   -0.131446
C      -0.025312   -0.015481   -0.028847
C       0.042381    1.429619    0.063028
C      -0.466766    2.285723   -1.125048
N       0.702375    3.200126   -0.973286
C       1.331955    2.311425    0.027627
C       0.938747    2.689123    1.463969
O      -0.311002    1.946703    1.354455
H      -0.484729    1.724012   -2.065441
H      -1.437813    2.759780   -0.957625
H       1.245179    3.294502   -1.822517
H       2.338938    1.949247   -0.177002
H       1.574628    2.262941    2.248423
H       0.771691    3.755707    1.634788
