20

C      -1.166650    0.915989    0.028152
C      -0.111972   -0.181124    0.009049
C       1.069891   -0.074653   -1.005068
C       2.092015   -0.392787    0.136784
C       0.904652   -0.310070    1.179226
C       1.518306    1.008801    1.748381
C       2.678236    0.834789    0.783686
N       3.795865    1.399360    0.593482
O       3.947070    2.510803    1.449011
H      -0.719103    1.911051    0.120755
H      -1.751120    0.907482   -0.898625
H      -1.865142    0.784216    0.862286
H      -0.610796   -1.148127   -0.118987
H       1.051371   -0.811603   -1.810886
H       1.205796    0.914437   -1.451013
H       2.735722   -1.261160   -0.003136
H       0.715035   -1.088037    1.919036
H       0.931795    1.924369    1.631791
H       1.827975    0.945722    2.796211
H       4.828633    2.822584    1.218675
