17

N       0.363859    1.125929   -1.557532
C      -0.147580    0.354062   -0.691636
C      -1.595331   -0.087709   -0.800851
C      -2.414303    0.233636    0.430957
C      -3.386419   -0.716120    0.984173
O      -2.109568   -0.539005    1.608113
N       0.503086   -0.205484    0.432190
C       1.814893   -0.027194    0.787716
O       2.638375    0.611919    0.170275
H       1.346936    1.301807   -1.344423
H      -2.017340    0.411023   -1.675770
H      -1.628297   -1.170683   -0.974542
H      -2.558519    1.294021    0.636960
H      -4.232769   -0.352440    1.563154
H      -3.536090   -1.674660    0.489944
H      -0.083852   -0.729521    1.070127
H       2.051811   -0.552851    1.732411
