21

C      -0.039310    1.561429    0.021650
C      -0.087082    0.024789    0.023558
C      -1.548307   -0.446232   -0.021659
C       0.754120   -0.560610   -1.135080
C       2.226171   -0.082774   -1.191237
C       3.030590   -1.333295   -1.428623
C       2.287918   -2.443902   -1.395841
C       0.867620   -2.105765   -1.152080
O      -0.036412   -2.899941   -1.010749
H       0.976471    1.954713    0.122653
H      -0.461444    1.960445   -0.908726
H      -0.632452    1.962225    0.850000
H       0.360318   -0.328581    0.964446
H      -2.039254   -0.082678   -0.933067
H      -1.621866   -1.533239   -0.014120
H      -2.101376   -0.043231    0.833360
H       0.256211   -0.290977   -2.077775
H       2.405599    0.669216   -1.967910
H       2.538453    0.381357   -0.246496
H       4.104187   -1.301247   -1.584102
H       2.625026   -3.466313   -1.508037
