16

O      -0.067337    0.033770   -0.263984
C       0.008123    1.204132   -0.037432
N      -0.978851    2.191052    0.167782
C      -0.037241    3.188415    0.629310
C       0.605432    3.261518    2.026410
C       1.786109    3.326277    1.046198
C       0.985223    4.210650   -0.018774
C       1.317805    3.269498   -1.177690
C       1.107057    2.318958    0.025823
H      -1.959888    2.057703    0.379306
H       0.404053    4.155342    2.622861
H       0.538694    2.355506    2.636978
H       2.852378    3.418789    1.261804
H       0.924804    5.302638   -0.010042
H       0.579116    3.204826   -1.980800
H       2.332070    3.316979   -1.581741
