14

N      -0.095298    1.455723    0.010347
C       0.001658    0.121671    0.003007
N      -1.010485   -0.695834    0.006189
H      -1.970994   -0.360817    0.014744
C      -0.937219   -2.104498   -0.001351
N      -2.129676   -2.672446    0.004346
O      -1.851729   -4.023363   -0.004439
C      -0.425559   -4.255622   -0.015703
O      -0.010878   -5.389833   -0.024418
C       0.155689   -2.951889   -0.013427
H       0.736297    2.019506    0.007221
H      -0.982446    1.932396    0.019096
H       0.993071   -0.313994   -0.006272
H       1.211006   -2.743706   -0.019965
