18

C      -0.142437    1.558768    0.018300
C       0.070322    0.034189    0.034208
C       0.766293   -0.484345   -1.196235
C       2.060364   -0.884344   -1.206274
C       2.688939   -1.358553   -2.409036
C       1.953118   -1.401570   -3.530307
O       0.657168   -1.022575   -3.568875
C      -0.008300   -0.553350   -2.434528
N      -1.232874   -0.219403   -2.518366
H       0.813730    2.088331   -0.045960
H      -0.759388    1.847599   -0.834946
H      -0.647884    1.881334    0.933795
H       0.659546   -0.247081    0.914135
H      -0.905498   -0.455594    0.117477
H       2.638673   -0.847285   -0.287845
H       3.723221   -1.674465   -2.424590
H       2.298486   -1.734119   -4.501240
H      -1.579769   -0.353449   -3.467980
