19

C      -0.230087    1.538992   -0.038347
C       0.075814    0.031707    0.039306
C       0.799426   -0.469987   -1.172857
C       2.073081   -0.868601   -1.301010
C       2.449408   -1.299912   -2.701539
O       3.059402   -2.584628   -2.733458
C       1.125351   -1.181563   -3.487702
C       0.120220   -0.583628   -2.497821
O      -1.020404   -0.260419   -2.740308
H       0.692689    2.123814   -0.105980
H      -0.843612    1.759012   -0.915021
H      -0.774287    1.864904    0.852887
H       0.663187   -0.187704    0.937339
H      -0.871899   -0.512727    0.128045
H       2.804884   -0.909629   -0.499604
H       3.213845   -0.632205   -3.115048
H       2.462886   -3.202383   -2.295306
H       1.192924   -0.558363   -4.383403
H       0.783841   -2.169288   -3.813763
