21

C       0.056276    1.495975    0.032269
C       0.041016   -0.016274   -0.001992
O       0.662307   -0.450616   -1.188891
C       0.489076   -1.847402   -1.377280
C       0.900684   -2.647719   -0.152601
C       0.378879   -4.068148   -0.117235
C       2.248254   -2.350613    0.472440
C       0.983148   -1.861648    1.135163
O       0.734042   -0.481342    1.137281
H       1.088182    1.850651   -0.025296
H      -0.506824    1.894729   -0.814470
H      -0.390172    1.851910    0.963434
H      -0.992832   -0.411254    0.017036
H      -0.568591   -2.061337   -1.608986
H       1.086775   -2.117863   -2.254058
H       0.779377   -4.656691   -0.951693
H       0.670319   -4.573289    0.808642
H      -0.715069   -4.094574   -0.183892
H       2.796629   -3.169470    0.926403
H       2.857247   -1.581298    0.010675
H       0.658171   -2.336275    2.058045
