21

C       0.036226    1.577301    0.142273
C      -0.011363    0.041241   -0.022358
C       0.730870   -0.609709    1.182047
O       0.672658   -2.017016    1.195821
C      -1.403212   -0.417876    0.017373
C      -2.533078   -0.825193    0.100444
C       0.679876   -0.351075   -1.333313
C       0.391825   -1.629028   -2.068697
C      -0.024060   -0.307178   -2.666131
H       1.076899    1.917717    0.166426
H      -0.464204    2.068443   -0.695464
H      -0.451771    1.891590    1.069148
H       1.792000   -0.345327    1.119230
H       0.331208   -0.178582    2.113397
H      -0.260845   -2.260618    1.207717
H      -3.539645   -1.160366    0.156529
H       1.718219   -0.027530   -1.340243
H       1.227805   -2.162925   -2.506117
H      -0.393627   -2.266954   -1.681779
H      -1.084224   -0.077421   -2.668637
H       0.521466    0.077984   -3.520487
