22

C      -0.095355    1.595099    0.077766
C       0.006990    0.064004    0.014705
C       0.776708   -0.451371   -1.188308
C       1.784916   -1.268206   -0.868961
C       2.756787   -1.925941   -1.796982
C       1.867674   -1.417201    0.630419
C       2.348092   -2.697805    1.262020
N       2.198904   -0.104130    1.265240
C       0.787785   -0.555484    1.175340
H       0.902513    2.032967    0.159396
H      -0.580173    1.994626   -0.819115
H      -0.684551    1.913035    0.944601
H      -1.012513   -0.350553    0.011492
H       0.540455   -0.130325   -2.198526
H       2.530449   -1.692343   -2.840762
H       3.783679   -1.598001   -1.590175
H       2.748778   -3.017668   -1.686618
H       3.409296   -2.874732    1.051750
H       2.224116   -2.667469    2.349604
H       1.787332   -3.560749    0.885940
H       2.520572   -0.280045    2.217132
H       0.271566   -0.806417    2.097045
