20

C       2.122705    0.444350   -0.788960
C       0.739846    0.096883   -0.270562
O       0.299485    0.564045    0.753675
C      -0.081935   -0.890464   -1.104961
C       0.560653   -2.266811   -1.145268
C       0.276637   -3.336052   -2.122452
C       0.016583   -2.802574   -3.528915
C       1.390948   -2.100948   -3.413092
N       1.660416   -2.684900   -2.047706
H       2.708511   -0.464968   -0.960371
H       2.040864    0.956133   -1.755520
H       2.631266    1.095784   -0.077416
H      -1.066777   -0.966604   -0.634986
H      -0.221231   -0.482997   -2.111576
H       0.768385   -2.648234   -0.146087
H       0.116896   -4.363777   -1.810085
H       0.006935   -3.586299   -4.287720
H      -0.875232   -2.181778   -3.658566
H       2.134690   -2.488438   -4.111442
H       1.415590   -1.007724   -3.455232
