17

N      -0.036990    1.292496    0.587077
C      -0.017843    0.140519    0.067630
C      -1.297552   -0.671294   -0.091958
N      -1.235072   -1.701085   -1.124675
C      -0.694013   -1.252423   -2.454451
C       0.561613   -2.088583   -2.238611
C       1.153425   -1.738895   -0.896361
O       1.147111   -0.421526   -0.381854
C      -0.070680   -2.577379   -0.926846
H       0.908812    1.677188    0.638792
H      -1.524586   -1.164336    0.860808
H      -2.111839    0.029404   -0.289549
H      -1.331379   -1.608801   -3.267692
H      -0.547385   -0.171171   -2.559482
H       1.109726   -2.642471   -2.989390
H       2.092568   -2.224798   -0.654994
H      -0.173792   -3.561431   -0.482071
