16

C       0.065102    1.456960   -0.136762
C       0.005984    0.011360    0.309157
O       0.720063   -0.446859    1.165103
C      -1.063567   -0.837171   -0.394757
N      -0.903146   -2.257122   -0.206788
C      -0.825985   -2.989195    0.925736
N      -0.672507   -4.267893    0.638387
C      -0.653441   -4.264401   -0.722787
N      -0.788229   -3.076709   -1.287109
H       0.495655    1.508935   -1.143887
H      -0.936938    1.895438   -0.194775
H       0.687583    2.031110    0.549782
H      -2.042935   -0.501463   -0.025616
H      -1.050886   -0.656519   -1.471815
H      -0.871214   -2.550902    1.909480
H      -0.538770   -5.160443   -1.314326
