16

O      -0.054812   -0.000329    0.186005
C      -0.048183    1.183825   -0.048496
C      -1.229317    2.107540   -0.149542
C      -0.742914    3.325037   -0.438185
N      -0.729529    4.562068    0.331727
C       0.787888    4.329624    0.353341
C       1.263960    3.098933    1.211066
C       1.187945    2.111203   -0.045173
C       0.715609    3.348646   -0.831464
H      -2.177722    1.867849    0.312917
H      -0.900298    5.393857   -0.234782
H       1.381283    5.243071    0.406971
H       2.297966    3.235586    1.533422
H       0.652542    2.839086    2.076234
H       2.121033    1.605768   -0.290872
H       1.000392    3.577130   -1.858535
