15

O       0.167124    1.102343   -0.534246
C      -0.025485    0.005317    0.346159
C      -1.418816   -0.589272    0.250171
C      -1.876958   -1.184070   -1.059427
O      -0.888977   -1.212190   -2.070694
C      -1.623916   -2.094609    0.115082
O      -0.529316   -2.954512    0.044226
H       0.052689    0.753258   -1.425442
H       0.725522   -0.778583    0.183959
H       0.134540    0.394009    1.356400
H      -2.189774   -0.049388    0.792165
H      -2.885006   -0.985285   -1.414965
H      -1.190250   -1.798015   -2.773466
H      -2.461718   -2.552609    0.631716
H      -0.081152   -2.756114   -0.789185
