18

C      -0.335980    1.539056   -0.178448
C      -0.034964    0.060591   -0.017372
O       1.048931   -0.317431   -0.890342
C       1.765135   -1.317327   -0.306025
N       2.685925   -2.000331   -0.819708
O       1.354095   -1.506172    0.975601
C       0.472819   -0.428953    1.350106
C       1.271171    0.564655    2.193409
O       1.807716   -0.070366    3.332153
H       0.534496    2.155971    0.056267
H      -0.633323    1.746145   -1.209445
H      -1.162462    1.829928    0.477188
H      -0.914234   -0.529891   -0.306550
H       2.813524   -1.738693   -1.794327
H      -0.323330   -0.863827    1.959383
H       2.057101    1.027595    1.575537
H       0.613242    1.362280    2.553120
H       2.313031   -0.828488    3.014191
