23

O      -0.021003    1.545202    0.239825
C       0.071123    0.160502   -0.016070
C      -1.287845   -0.565031   -0.010372
C      -2.122623   -0.184911   -1.235060
O      -2.323089    1.231710   -1.253552
C      -1.117412   -2.097032    0.038078
C      -0.656240   -2.631782    1.379062
C      -1.661220   -2.894786    2.472889
C      -0.978029   -4.048865    1.779603
H      -0.731524    1.873358   -0.327349
H       0.571907   -0.043654   -0.981717
H       0.717449   -0.252691    0.765524
H      -1.832689   -0.238971    0.885042
H      -1.600197   -0.510716   -2.148764
H      -3.092983   -0.703098   -1.204052
H      -2.692341    1.480566   -2.105562
H      -2.075352   -2.573197   -0.211443
H      -0.413231   -2.408637   -0.747013
H       0.310780   -2.264829    1.711292
H      -1.386715   -2.671307    3.497766
H      -2.708804   -2.720200    2.248233
H      -1.568168   -4.647685    1.093039
H      -0.233227   -4.613510    2.329530
