20

C       0.008581    1.573753   -0.018227
C       0.053635    0.044875    0.020164
C       0.773880   -0.582352   -1.196361
C       1.261622   -1.975242   -0.704994
C       2.416032   -2.475696   -1.451942
N       3.331274   -2.863906   -2.041986
C       1.514635   -1.791380    0.793883
C       2.281827   -0.566664    1.221947
C       0.772068   -0.549806    1.228849
H       1.019460    1.995241   -0.006593
H      -0.496637    1.933534   -0.920708
H      -0.530018    1.974004    0.846708
H      -0.978531   -0.331770    0.040771
H       0.130253   -0.664421   -2.074898
H       1.632629    0.028329   -1.489663
H       0.452099   -2.705457   -0.827980
H       1.560132   -2.682782    1.408051
H       2.779723   -0.618565    2.183425
H       2.827549    0.007460    0.480339
H       0.265944   -0.518235    2.187810
