20

C       0.670723    1.466292   -0.069829
C       0.028539    0.083590    0.012344
C       0.651716   -1.002923   -0.917237
C       1.293854   -1.710154    0.311705
C       2.800073   -1.561288    0.436198
O       3.393838   -2.336124   -0.595689
C       0.444127   -0.787404    1.244529
O       1.045757   -0.174422    2.363392
H       1.766374    1.421290   -0.033453
H       0.408972    1.953979   -1.014470
H       0.331428    2.112170    0.746939
H      -1.055490    0.195685   -0.086663
H      -0.090742   -1.616535   -1.431768
H       1.364097   -0.637061   -1.661726
H       1.059852   -2.775112    0.399983
H       3.097900   -0.502443    0.343247
H       3.119977   -1.900984    1.433000
H       4.349265   -2.263154   -0.514222
H      -0.412558   -1.332122    1.650206
H       1.716566    0.440351    2.050645
