15

N      -0.084264    1.371401    0.125677
C       0.066673    0.045361   -0.238864
O       1.080977   -0.421702   -0.684593
N      -1.137338   -0.693848   -0.090901
C      -2.437249   -0.178799   -0.207489
N      -3.393660   -1.016339   -0.158361
C      -2.767821   -2.330662    0.013326
C      -1.254507   -2.099995    0.055646
N      -0.277315   -2.883312    0.221790
H       0.787404    1.880035    0.113900
H      -0.690698    1.590137    0.901385
H      -2.564415    0.886632   -0.359041
H      -3.118819   -2.805430    0.936463
H      -3.046160   -2.992670   -0.814912
H      -0.611160   -3.841517    0.328451
