15

O       0.065290    1.294725    0.170055
C      -0.019637   -0.031334    0.090053
N      -1.060446   -0.751194    0.326463
C      -0.606172   -2.058875    0.095949
C       0.694237   -2.030773   -0.267008
O       1.092880   -0.698419   -0.275303
N      -1.403864   -3.203276    0.230288
C      -2.425363   -3.173104    1.293299
C      -2.826902   -3.060376   -0.128502
H       0.964317    1.557939   -0.062537
H       1.432465   -2.764338   -0.531979
H      -2.545688   -4.110493    1.827786
H      -2.485018   -2.271235    1.894759
H      -3.153459   -2.083619   -0.471976
H      -3.246199   -3.913888   -0.652493
