15

C      -0.042328    1.494763    0.169223
C       0.002040    0.004468   -0.006236
C       0.294144   -0.588989   -1.243626
N       0.336987   -1.905823   -1.414156
C       0.084512   -2.653670   -0.333420
C       0.129863   -4.128713   -0.513205
O      -0.076629   -4.923694    0.372307
C      -0.207516   -2.071681    0.903735
N      -0.249761   -0.753155    1.071723
H       0.681954    1.807981    0.927824
H       0.176105    2.018627   -0.764018
H      -1.030064    1.804431    0.525104
H       0.497701    0.028498   -2.115096
H       0.374526   -4.435976   -1.551281
H      -0.408655   -2.701625    1.765024
