18

C       0.122689    1.411269    0.047970
C       0.064207   -0.042924    0.016642
C       0.024182   -1.246951    0.007791
C      -0.069469   -2.710024   -0.051928
O      -1.422742   -3.152319    0.066155
C       0.605660   -3.257812   -1.298664
C       2.076374   -3.585437   -1.271448
C       1.053861   -4.693479   -1.322423
H       0.907381    1.760164    0.728288
H       0.334712    1.826031   -0.943628
H      -0.825685    1.838776    0.391726
H       0.433926   -3.140200    0.824046
H      -1.943009   -2.649691   -0.570100
H       0.216129   -2.843676   -2.225043
H       2.664547   -3.377932   -2.158126
H       2.611598   -3.429186   -0.340310
H       0.894827   -5.283473   -0.425877
H       0.940178   -5.251097   -2.245240
