18

C       0.040637    1.522289   -0.028048
C       1.285073    0.715482   -0.012814
C       2.122410    0.639886    1.260096
O       1.236258    0.735518    2.375672
C       0.612994   -0.555662    2.397608
C      -0.477785   -0.553858    1.301960
N      -0.036737    0.058472    0.029586
C       1.759479   -1.489761    2.040716
C       2.668514   -0.781497    1.380868
H      -0.193635    2.078822    0.875654
H      -0.311126    1.966736   -0.956183
H       1.835456    0.551416   -0.938740
H       2.864323    1.441258    1.325470
H       0.181894   -0.721803    3.389129
H      -0.794551   -1.582653    1.092162
H      -1.356787   -0.010458    1.665025
H       1.758164   -2.553109    2.240409
H       3.579985   -1.129764    0.913936
