21

O      -0.249278    1.369406   -0.604301
C      -0.032544    0.110642    0.021789
C      -1.359238   -0.605058    0.052783
C      -1.816920   -1.471630   -1.090634
C      -1.503806   -2.102783    0.246015
C      -0.293966   -3.022051    0.353806
O      -0.486125   -4.260103   -0.303588
C      -2.672682   -2.540233    1.100148
O      -3.080266   -3.850776    0.685428
H       0.581854    1.853450   -0.593792
H       0.713605   -0.478508   -0.530682
H       0.348086    0.243599    1.047957
H      -2.128942   -0.002413    0.530202
H      -2.852084   -1.413549   -1.409071
H      -1.113864   -1.656864   -1.896107
H       0.585778   -2.565316   -0.108391
H      -0.053321   -3.170598    1.422079
H      -1.370791   -4.558869   -0.053510
H      -2.373603   -2.555681    2.159733
H      -3.507103   -1.831347    0.996485
H      -3.659580   -4.220256    1.358257
