19

C      -0.042386    1.512850   -0.017465
C       0.001326    0.008594   -0.002911
C      -0.216989   -0.867674   -1.203753
C       0.911613   -1.807274   -1.287426
C       1.695676   -1.713761   -0.201653
C       1.076733   -0.767652    0.822986
C       0.248447   -1.737714    1.660247
C      -0.995970   -1.838933    1.166703
C      -1.205193   -0.884083    0.067577
H       0.890750    1.934600   -0.408876
H      -0.861185    1.872869   -0.649362
H      -0.196770    1.916533    0.990019
H      -0.686050   -0.476707   -2.100453
H       1.044982   -2.511363   -2.100503
H       2.547975   -2.344413    0.023401
H       1.781215   -0.142827    1.378613
H       0.684751   -2.375229    2.420509
H      -1.742099   -2.557631    1.485116
H      -2.194741   -0.501764   -0.159521
