14

C      -0.117484    1.195504   -0.674471
C      -0.084051   -0.093315    0.062180
C      -0.995781   -0.994482    0.541719
N      -2.388400   -1.093389    0.529384
C      -3.266874   -0.542262   -0.360291
O      -2.984154    0.209038   -1.266261
N      -0.301386   -1.980050    1.198358
N       0.939182   -1.749965    1.147693
O       1.124940   -0.562476    0.423967
H       0.671141    1.213204   -1.432101
H      -1.088712    1.321918   -1.149389
H       0.063250    2.031889    0.010461
H      -2.753414   -1.772251    1.182392
H      -4.301300   -0.865887   -0.142634
