18

C      -0.219830    1.404206    0.102366
O       0.031924    0.006524   -0.049812
C       0.670578   -0.561089    1.017973
C       1.974497   -0.952117    1.081014
C       3.087411   -0.880283    0.102381
O       2.209377   -1.527982    2.289610
C       1.034435   -1.504127    3.001915
C       0.049149   -0.921039    2.267484
N      -1.283543   -0.628265    2.589892
H       0.720090    1.965875    0.174919
H      -0.765683    1.722607   -0.788705
H      -0.823473    1.605957    0.995148
H       3.924137   -0.280331    0.478673
H       3.479003   -1.875635   -0.137304
H       2.720495   -0.424821   -0.820331
H       1.073348   -1.929437    3.990210
H      -1.642000   -1.196533    3.346545
H      -1.885720   -0.729970    1.781092
