20

C      -0.299392    1.413219    0.167317
C       0.249685    0.032357   -0.180899
N       0.773905   -0.614384    1.023271
C      -0.050699   -1.351225    1.951138
C      -1.173667   -2.159291    1.263103
C      -0.070959   -2.856639    0.443090
C      -0.017121   -4.241576   -0.020048
O      -0.124423   -3.149799   -0.945381
C       1.016860   -2.038081    1.115777
H       0.468337    2.023222    0.651793
H      -0.640437    1.930741   -0.734405
H      -1.149768    1.335955    0.853377
H      -0.517695   -0.559730   -0.697370
H       1.091016    0.124242   -0.876549
H      -0.020064   -1.090916    3.002855
H      -1.682922   -2.844613    1.945083
H      -1.920604   -1.589674    0.704165
H       0.933862   -4.773749   -0.037085
H      -0.900520   -4.873730    0.063543
H       2.010025   -2.385981    1.380417
