21

C      -0.210669    1.543088   -0.039898
C       0.050218    0.039396   -0.009792
C       0.816749   -0.502476   -1.241833
O       2.018427    0.277475   -1.462183
C       2.695309   -0.547700   -0.481891
C       2.397909   -0.012158    0.933034
C       0.942730   -0.505183    1.144852
C       1.080288   -1.987173    0.728793
C       1.644738   -1.688313   -0.659724
H       0.713293    2.102239   -0.202164
H      -0.897295    1.801899   -0.853593
H      -0.664734    1.882520    0.897045
H      -0.913793   -0.485533    0.043552
H       0.223216   -0.606738   -2.153428
H       3.749484   -0.696550   -0.725079
H       3.063823   -0.466978    1.675691
H       2.524435    1.071953    0.980436
H       0.542041   -0.320662    2.143695
H       1.774539   -2.551732    1.359650
H       0.123710   -2.518448    0.701555
H       1.898805   -2.506245   -1.330629
