17

O       1.916063    4.155610   -0.043885
C       1.071246    3.311473    0.149687
N       1.248514    1.953170    0.116843
C       2.422993    1.235871   -0.139451
C       2.500659   -0.099734   -0.178477
C       3.887452   -0.568745   -0.537926
C       4.741497    0.718719   -0.393496
C       3.744218    1.902901   -0.452132
H       0.016148    3.557896    0.383133
H       0.422111    1.401033    0.295120
H       1.665666   -0.775209   -0.024525
H       4.247038   -1.377464    0.108838
H       3.915357   -0.964694   -1.563773
H       5.239384    0.715047    0.580973
H       5.522812    0.794625   -1.153397
H       3.703630    2.371435   -1.443121
H       3.985647    2.705434    0.246347
