15

O      -0.031053   -0.000245    0.120352
C       0.056628    1.205697    0.040891
C       1.311294    1.938524   -0.062701
C       1.509681    3.281281   -0.030713
C       3.005806    3.444892   -0.031276
C       3.431103    2.334832   -1.052527
C       2.710834    1.351329   -0.074859
C       3.318856    2.292914    1.037649
O       3.841972    2.205076    2.093095
H      -0.848100    1.853800    0.035402
H       0.775675    4.066837    0.089480
H       3.453136    4.434435    0.004856
H       2.983461    2.417682   -2.045792
H       4.513360    2.189268   -1.109162
H       2.830291    0.272455   -0.090359
