16

O      -0.523842    0.495263   -0.614399
C       0.005496    1.242604    0.172106
C       1.268678    2.013838   -0.035141
N       2.368105    1.724922   -0.963534
C       1.810875    1.118110   -2.240356
C       0.914305    2.348087   -2.519384
C       1.467591    2.925919   -1.222862
C       1.961903    4.306477   -1.020104
O       1.706315    5.220995   -1.762844
H      -0.445449    1.430406    1.171710
H       1.659695    2.417226    0.897621
H       2.639776    1.008697   -2.940725
H       1.310943    0.163928   -2.089103
H       1.220792    2.938269   -3.383315
H      -0.161748    2.176006   -2.556259
H       2.609695    4.432544   -0.124119
