21

C      -0.504531    1.357016    0.098321
C       0.214551    0.017143   -0.108762
C       0.806185   -0.543669    1.172387
C       2.018100    0.163786    1.670422
O       2.556272    1.093502    1.119364
C      -0.011722   -1.106847    2.331383
C      -1.256525   -1.847171    1.819412
C      -0.325085   -2.806651    1.011596
C       0.889648   -2.029484    1.532232
H       0.188536    2.113250    0.474149
H      -0.923798    1.721306   -0.844597
H      -1.326949    1.260276    0.815380
H      -0.474597   -0.703787   -0.557290
H       1.032205    0.153181   -0.824790
H       2.423383   -0.243984    2.627104
H       0.118040   -0.727494    3.338735
H      -1.785521   -2.366645    2.620925
H      -1.979853   -1.253552    1.254318
H      -0.351136   -3.825217    1.404730
H      -0.457223   -2.852416   -0.072761
H       1.837631   -2.473336    1.814571
