20

C       0.105095    1.348494    0.173841
O      -0.084621   -0.030277   -0.027426
C       0.715824   -0.549951   -1.065094
C       0.417545   -2.038633   -1.208483
C       1.232667   -2.705566   -2.298672
O       0.956734   -2.249734   -3.602491
C       2.643227   -3.169220   -2.016872
C       1.522795   -4.172104   -2.222219
H       1.146409    1.583752    0.447591
H      -0.151149    1.933069   -0.724550
H      -0.551672    1.654487    0.991890
H       0.498998   -0.022894   -2.011273
H       1.786166   -0.392008   -0.842922
H       0.615565   -2.527411   -0.248558
H      -0.649195   -2.165454   -1.424962
H       1.385279   -1.395325   -3.718401
H       3.366822   -3.066737   -2.817974
H       3.046667   -3.040548   -1.017967
H       1.160323   -4.728305   -1.364828
H       1.509104   -4.713031   -3.161015
