13

C      -0.045031    1.490623    0.024689
N      -0.004654    0.028280    0.003598
C      -0.094965   -0.647860    1.226177
N      -0.207676    0.010497    2.304532
C       0.116599   -0.725411   -1.142958
O       0.152132   -1.935497   -1.184739
C       0.207189    0.046227   -2.396321
N       0.284288    0.570136   -3.423518
H       0.034516    1.873065   -0.991453
H      -0.981365    1.824970    0.476049
H       0.779148    1.871354    0.631334
H      -0.055729   -1.729708    1.104835
H      -0.261327   -0.623366    3.100024
