12

O       0.167383    1.547953   -0.115183
C       0.061844    0.148682    0.063350
C       0.533655   -0.582000   -1.130899
N       0.945838   -1.121729   -2.065527
C       0.797378   -0.329316    1.308720
C       0.114628   -0.339809    2.604471
O       0.337288   -1.549531    1.871849
H       1.070161    1.758169   -0.380703
H      -1.003605   -0.065484    0.196058
H       1.881882   -0.213529    1.276681
H       0.696375   -0.232527    3.517575
H      -0.922296   -0.013669    2.666658
