21

C      -0.128757    1.582625    0.046808
C       0.011331    0.058236    0.025835
C       0.524461   -0.421097   -1.351944
O       1.391520   -1.563990   -1.303269
C       1.082441   -2.532451   -0.342796
C       2.206911   -2.732224    0.639183
O       3.392764   -2.039378    0.423131
C       0.950269   -1.998488    1.072045
C       0.920840   -0.482163    1.145285
H       0.849274    2.067350   -0.053822
H      -0.763460    1.939354   -0.772140
H      -0.576392    1.922945    0.986172
H      -0.983272   -0.376877    0.189824
H      -0.319245   -0.633774   -2.023545
H       1.131596    0.360346   -1.821908
H       0.481460   -3.365315   -0.703644
H       2.369910   -3.727212    1.042889
H       3.283462   -1.600000   -0.432672
H       0.279234   -2.534315    1.736715
H       1.936118   -0.081502    1.042679
H       0.546807   -0.151730    2.118914
