25

C       0.084931    1.564523    0.214785
C       0.035949    0.051860   -0.016373
C      -1.381697   -0.524642    0.056457
C      -1.435885   -2.042262   -0.177237
C      -2.831173   -2.602038   -0.126719
C      -3.517520   -2.984105    1.158387
C      -3.324656   -4.036743    0.098722
C      -4.385373   -3.873146   -0.994411
C      -3.896417   -2.404592   -1.221084
H       1.109041    1.946432    0.155205
H      -0.513411    2.098463   -0.532012
H      -0.311305    1.827343    1.202086
H       0.472282   -0.183680   -0.996377
H       0.670090   -0.453291    0.724627
H      -1.821633   -0.295491    1.036387
H      -2.016657   -0.020316   -0.684995
H      -0.983011   -2.272526   -1.152528
H      -0.814607   -2.547768    0.574567
H      -2.864297   -3.070984    2.021759
H      -4.515455   -2.616998    1.392571
H      -2.747070   -4.934081    0.290646
H      -4.208637   -4.505531   -1.867418
H      -5.425340   -4.004789   -0.676226
H      -4.625478   -1.605522   -1.048954
H      -3.460187   -2.265605   -2.214227
