19

C      -0.023651    1.568446    0.019766
C       0.016601    0.040373   -0.036434
C       0.782291   -0.487156   -1.254520
C       0.778587   -2.009494   -1.254339
O       1.271839   -2.581504   -0.033432
C       0.859497   -2.054496    1.160667
N       0.747340   -2.775331    2.195630
C       0.663909   -0.557032    1.222707
H       0.988861    1.985387    0.074471
H      -0.508719    1.984481   -0.869461
H      -0.574969    1.918485    0.898609
H      -1.016797   -0.331042   -0.101093
H       0.332778   -0.133106   -2.189595
H       1.815899   -0.117552   -1.230237
H      -0.241777   -2.382652   -1.425275
H       1.419989   -2.416921   -2.039782
H       0.954197   -3.749036    1.960250
H       1.659240   -0.105567    1.347422
H       0.095552   -0.331019    2.126850
