20

C       0.018018    1.530216    0.104453
N       0.065763    0.091880    0.216450
C      -1.176976   -0.668065    0.435465
C      -0.427931   -1.601120    1.414885
C      -1.126806   -2.076323    2.668051
C       0.533559   -2.615082    0.710582
C       1.692313   -1.604317    0.880213
O       2.876150   -1.670407    0.727340
C       0.725080   -0.524143    1.394195
H       1.033917    1.930323    0.028503
H      -0.519836    1.809282   -0.808017
H      -0.483554    2.021112    0.960211
H      -1.956105   -0.081225    0.950394
H      -1.612625   -1.113102   -0.467785
H      -1.897189   -2.819154    2.428440
H      -0.422107   -2.546867    3.362609
H      -1.614176   -1.249242    3.194351
H       0.704175   -3.542681    1.266600
H       0.292025   -2.869784   -0.324853
H       0.993653    0.142385    2.220892
