20

C       0.371904    1.706378   -0.613303
C       0.424137    0.210305   -0.372259
C       1.646108   -0.656466   -0.466905
C       2.876098    0.020621    0.157985
C       2.137604    0.038933    1.536648
C       2.034181    1.332108    2.366320
C       3.334460    1.761884    2.878360
N       4.374703    2.081103    3.268281
C       0.880820   -0.527511    0.864930
H       1.310346    2.211567   -0.374551
H       0.163964    1.907392   -1.669922
H      -0.423827    2.178083   -0.026074
H      -0.443699   -0.297430   -0.791863
H       1.694135   -1.511468   -1.130358
H       3.764894   -0.611702    0.171824
H       3.158058    0.991007   -0.262238
H       2.577060   -0.730980    2.176997
H       1.605180    2.149381    1.780474
H       1.361610    1.170032    3.217314
H       0.229467   -1.253219    1.339650
