20

C      -0.268347    1.504067   -0.019593
C      -0.012017    0.001974   -0.006308
C       1.183753   -0.518859   -0.935397
C       2.029248   -0.694171    0.354501
C       2.810070    0.347070    1.161546
C       2.003553   -0.462865    2.176316
N       2.339818   -1.810342    1.449413
C       0.853851   -2.154620    1.428154
C       0.766809   -0.647620    1.199595
H       0.644881    2.085266    0.135223
H      -0.693048    1.811823   -0.981650
H      -0.978847    1.783451    0.765135
H      -0.955197   -0.522160   -0.193282
H       0.942310   -1.450549   -1.451748
H       1.583170    0.190911   -1.665733
H       3.895474    0.216865    1.202223
H       2.538219    1.396360    1.033906
H       2.028628   -0.443986    3.271155
H       0.579386   -2.825603    0.606028
H       0.488208   -2.559496    2.378354
