16

N      -0.060826    1.261293    0.492437
C      -0.029709    0.076313    0.037349
O       1.147508   -0.545180   -0.215059
C       1.248056   -1.896732   -0.717510
C       0.661488   -2.058515   -2.096208
C      -0.623874   -1.841498   -2.374828
C      -1.646716   -1.457580   -1.373311
O      -1.515425   -1.975529   -0.040236
C      -1.356122   -0.570928   -0.216854
H       0.890425    1.618849    0.603658
H       2.324322   -2.075781   -0.737625
H       0.790055   -2.586529   -0.006703
H       1.339990   -2.338483   -2.895955
H      -0.981096   -1.936600   -3.396117
H      -2.674846   -1.448180   -1.732104
H      -2.163664    0.043288    0.173146
