20

C       0.303096    1.494675   -0.076739
C       0.080368   -0.017340   -0.008934
C      -1.395079   -0.422119    0.049564
O      -2.037381    0.018515   -1.163263
C      -3.110150    0.831263   -1.078185
O      -3.703502    1.217256   -2.038851
C      -1.573351   -1.923718    0.190360
C      -2.792441   -2.623474   -0.276711
N      -1.509898   -2.800306   -0.985358
H       1.371349    1.728007   -0.089553
H      -0.141850    1.920781   -0.980255
H      -0.136422    2.002184    0.789650
H       0.539893   -0.510031   -0.873271
H       0.569505   -0.430552    0.881167
H      -1.875390    0.079184    0.903537
H      -3.365144    1.094528   -0.033644
H      -1.053990   -2.321624    1.060812
H      -3.147599   -3.499660    0.257948
H      -3.569045   -2.041249   -0.763663
H      -1.526096   -2.223674   -1.824922
