17

O       0.010212    1.440367   -0.042515
C       0.013038    0.033088   -0.000967
C       0.930805   -0.541396   -0.970015
C       1.729821   -0.927437   -1.781350
C       0.042743   -0.681030    1.397141
C      -0.986290    0.116838    2.215884
C      -2.126105    0.136884    1.146420
C      -1.386848   -0.651021    0.049810
O      -0.763700   -1.735491    0.797695
H       0.830265    1.731308   -0.452552
H       2.423379   -1.293334   -2.497893
H       0.963433   -1.030791    1.862470
H      -1.262041   -0.419538    3.125632
H      -0.628082    1.114338    2.476254
H      -3.022142   -0.397423    1.467519
H      -2.398767    1.144188    0.827478
H      -1.916335   -0.968307   -0.847353
