21

C       0.740715    1.390466    0.156793
O       0.840659   -0.013516    0.179681
C      -0.180991   -0.625149    0.934046
C       0.039367   -2.130451    0.891440
C       1.364897   -2.555565    1.523785
O       1.472137   -3.970072    1.568268
C       0.385559   -4.540479    2.277924
C      -0.939198   -4.130186    1.644861
O      -1.050635   -2.716121    1.594309
H       0.816564    1.821432    1.167574
H       1.566169    1.767504   -0.451624
H      -0.210595    1.723656   -0.286938
H      -0.165052   -0.276786    1.980576
H      -1.177033   -0.391956    0.525300
H       0.029750   -2.468612   -0.157968
H       2.206432   -2.185930    0.934835
H       1.430174   -2.134942    2.542099
H       0.516284   -5.626486    2.243323
H       0.404489   -4.215639    3.331662
H      -1.007120   -4.552605    0.629068
H      -1.787032   -4.493806    2.233679
