17

O       0.026903    1.334962   -0.509183
C       0.026902    0.144374    0.254682
C      -1.347192   -0.482870    0.291226
N      -1.749650   -1.129421   -0.973735
C      -1.543604   -1.947995    0.211332
C      -0.623456   -3.156467    0.367830
O      -1.702627   -3.840881    1.092342
C      -2.566352   -2.775936    0.918884
N      -3.770124   -2.611901    1.225285
H      -0.287548    1.093114   -1.388292
H       0.751502   -0.586422   -0.137169
H       0.343728    0.422908    1.264983
H      -2.110361    0.072778    0.831975
H      -2.750145   -1.023657   -1.132650
H      -0.374890   -3.681531   -0.556980
H       0.257699   -3.037720    1.002235
H      -4.165300   -3.427846    1.693477
