16

C      -0.070752    1.472283    0.035874
N      -0.046033    0.018657   -0.023129
C      -0.085957   -0.683070   -1.178481
N      -0.066185   -1.971979   -1.277299
C       0.002253   -2.701634   -0.089172
O       0.026611   -3.916731   -0.057963
C       0.044949   -1.900332    1.167138
C       0.118599   -2.632821    2.467236
N       0.021271   -0.604748    1.183818
H       0.834879    1.842309    0.522990
H      -0.124897    1.868531   -0.978980
H      -0.941162    1.808794    0.604661
H      -0.138951   -0.073332   -2.080136
H      -0.739337   -3.305963    2.564255
H       1.006547   -3.273020    2.483912
H       0.143946   -1.934166    3.304513
