22

C      -0.362164    1.432642    0.014334
C       0.049583   -0.027275   -0.101331
C       1.389513   -0.345429   -0.797860
O       1.873891   -1.047151    0.364597
C       0.693644   -0.719029    1.120120
C       0.937485   -0.054205    2.496360
N       0.657221   -1.348827    3.145933
C      -0.125331   -1.357585    4.358795
C       0.052807   -1.879397    1.909939
H       0.452065    2.045239    0.416317
H      -0.631712    1.838165   -0.966765
H      -1.229865    1.553872    0.671417
H      -0.777408   -0.621747   -0.502627
H       1.345682   -0.993206   -1.681217
H       2.005912    0.533456   -1.031136
H       1.942475    0.344606    2.670754
H       0.190355    0.725290    2.723482
H      -1.104120   -0.848247    4.250896
H      -0.314868   -2.389470    4.673276
H       0.427154   -0.859813    5.162890
H      -1.050231   -1.824415    1.894289
H       0.369847   -2.890245    1.631721
