19

C       0.050856    1.474258   -0.120427
C       0.025621   -0.026680    0.078963
O       1.009227   -0.689778   -0.783133
C       1.745911   -1.093047    0.359624
C       0.750679   -0.536216    1.326290
C       0.935403   -2.060465    1.231211
C      -0.092475   -3.004373    0.652951
C       1.742080   -2.576975    2.366094
O       1.633785   -3.680978    2.842437
H       1.049598    1.877418    0.070058
H      -0.234110    1.720567   -1.147275
H      -0.658940    1.957607    0.559703
H      -0.977745   -0.430919   -0.095889
H       2.828337   -1.081927    0.301245
H       0.877975    0.013018    2.250451
H      -0.360521   -2.711235   -0.363762
H       0.317346   -4.016960    0.628662
H      -0.998329   -3.031907    1.266497
H       2.492753   -1.854383    2.766322
