19

C      -0.281147    1.442445    0.195256
C       0.085606   -0.015307   -0.047236
C      -1.109907   -1.011137    0.142818
C      -0.414201   -1.568627    1.394230
O      -0.752155   -2.305822    2.273178
C       0.862885   -0.745602    1.120337
C       1.929267   -1.528177    0.402395
C       1.945078   -1.281343   -0.908741
C       0.918982   -0.258463   -1.328771
H       0.615000    2.069492    0.255181
H      -0.907020    1.831271   -0.616200
H      -0.838322    1.566424    1.130510
H      -2.088689   -0.562273    0.336831
H      -1.222707   -1.753483   -0.653808
H       1.230757   -0.164729    1.973304
H       2.581610   -2.220879    0.921748
H       2.628807   -1.741594   -1.614236
H       0.290212   -0.609651   -2.157683
H       1.402392    0.661889   -1.685395
