20

C      -0.042952    1.654329    0.566800
N      -0.016677    0.204596    0.421784
C       1.170167   -0.389415   -0.173082
C       0.847683   -0.620683    1.265691
C       1.770568   -0.088486    2.333259
O       1.094636   -0.070093    3.609864
C       0.801966    1.133803    4.150437
C       0.070242    0.954064    5.458650
O       1.087347    2.193363    3.651479
H       0.936105    2.118267    0.754917
H      -0.447584    2.079240   -0.357299
H      -0.706048    1.929257    1.391177
H       1.010754   -1.172178   -0.910304
H       2.012364    0.269898   -0.387755
H       0.387965   -1.568539    1.542360
H       2.615073   -0.773164    2.460017
H       2.147963    0.909880    2.112742
H      -0.888637    0.458474    5.280291
H       0.647167    0.312295    6.129757
H      -0.096771    1.927261    5.918329
