16

C      -0.050013    1.566284   -0.027000
C       0.001137    0.039196   -0.006605
C      -1.308483   -0.551764    0.228729
N      -2.342472   -1.037035    0.411546
C       0.733454   -0.658488   -1.180504
O       2.084616   -0.197249   -1.151115
C       1.715031   -1.295371   -0.293686
C       1.113450   -0.642140    0.956165
O       1.939888    0.203102    1.685446
H       0.918641    1.963098   -0.336808
H      -0.810841    1.921963   -0.727005
H      -0.284611    1.952872    0.967657
H       0.324045   -0.978751   -2.130637
H       2.279118   -2.214475   -0.395029
H       0.651710   -1.347208    1.648829
H       2.491158    0.676519    1.049013
