17

C      -0.006241    1.463505   -0.004419
N      -0.053509    0.014985   -0.039935
C      -1.236857   -0.662034    0.043207
O      -2.318109   -0.108450    0.150914
N      -1.115339   -2.063263   -0.005193
C       0.164514   -2.747184   -0.133351
C      -2.280957   -2.815675    0.074127
N      -2.262659   -4.087991    0.038003
H       0.580622    1.821828    0.848800
H       0.428736    1.870268   -0.924271
H      -1.030884    1.821692    0.093120
H       0.809503   -0.490135   -0.127377
H       0.822511   -2.524945    0.714597
H      -0.043794   -3.816585   -0.144351
H       0.669766   -2.476849   -1.067699
H      -3.156583   -2.174251    0.166494
H      -3.210816   -4.449732    0.109334
