16

O       0.056688    1.486056   -0.005228
C       0.072474    0.080030    0.036333
C      -1.356966   -0.515875    0.004534
C      -2.054876   -0.080054   -1.200742
C      -2.591435    0.315087   -2.201485
C      -1.364580   -2.070550    0.105744
O      -0.709243   -2.715833   -0.964181
C      -0.819740   -2.502123    1.410086
N      -0.363643   -2.834441    2.418512
H      -0.398674    1.745852   -0.815422
H       0.657398   -0.342457   -0.795651
H       0.557950   -0.198977    0.976344
H      -1.888968   -0.130460    0.883980
H      -3.086390    0.647996   -3.080765
H      -2.405683   -2.404283    0.052874
H       0.242447   -2.602104   -0.865578
