11

O       0.012413    1.378635   -0.027116
C      -0.043480    0.002839    0.012333
C      -0.467299   -0.764058    1.200350
O      -1.475566    0.018077    1.898806
C      -2.365116   -0.159087    0.822349
O      -3.505844    0.157460    0.787420
C      -1.351129   -0.840164   -0.041850
H      -0.447570    1.714054    0.754230
H       0.741849   -0.441772   -0.592760
H       0.043017   -1.528207    1.770717
H      -1.528958   -1.616269   -0.771500
