15

O       0.092926    1.391807   -0.285834
C       0.076523    0.004789    0.003292
C      -1.366459   -0.522370    0.063886
N      -2.097565   -0.296356   -1.164140
C      -2.414355   -1.452387   -1.814568
O      -2.909664   -1.626098   -2.885801
O      -2.060913   -2.514103   -0.965583
C      -1.439124   -2.033999    0.161122
N      -0.982970   -2.723691    1.107504
H      -0.129355    1.872852    0.518072
H       0.609119   -0.486590   -0.817067
H       0.588740   -0.242963    0.940893
H      -1.876948   -0.070258    0.924171
H      -2.037820    0.572669   -1.669285
H      -1.131316   -3.720882    0.947094
