21

C      -0.026416    1.666624    0.075615
C       0.066288    0.150717    0.059676
C       1.173944   -0.606188   -0.742782
C       2.437227   -0.037705   -0.030708
C       2.140493   -0.054741    1.279570
C       0.743194   -0.664904    1.256691
C      -0.217814   -1.528555    2.091082
C      -0.404332   -2.430337    0.805363
C       0.923219   -1.813836    0.231754
H       0.933576    2.135642    0.303153
H      -0.363764    2.038996   -0.898694
H      -0.756424    2.001900    0.821368
H      -0.923949   -0.253468   -0.165782
H       1.195082   -0.658234   -1.834052
H       3.328278    0.323671   -0.524753
H       2.729609    0.272056    2.124824
H       0.287079   -2.076528    2.892629
H      -1.109301   -1.045159    2.501635
H      -0.347682   -3.506962    0.978186
H      -1.322427   -2.224392    0.253439
H       1.776326   -2.480678    0.371866
