14

N      -0.097367    1.279959   -0.002866
C       0.009822    0.020993    0.023683
N      -1.143474   -0.836327    0.078767
C      -1.364977   -1.607089   -1.155068
C      -0.644206   -2.220386    0.006741
C       0.833780   -2.152793   -0.008423
C       1.219036   -0.862906    0.003299
C       2.538987   -0.347553   -0.063116
N       3.594114    0.127346   -0.112079
H       0.822099    1.721883   -0.055076
H      -2.399707   -1.878437   -1.339737
H      -0.780585   -1.345656   -2.033001
H      -1.143494   -2.965253    0.618881
H       1.485712   -3.016439   -0.012255
