18

N       0.272645   -0.927794    0.952097
C       0.122982    0.122381    0.493707
C      -0.078752    1.469272   -0.089047
C      -0.917000    2.372079    0.838706
C       0.170317    2.946731    1.759724
C       1.365655    3.046042    0.825324
C       2.058549    4.328273    0.473182
C       2.775221    3.250413    1.274806
O       1.159664    2.135917   -0.257751
H      -0.533930    1.341066   -1.076191
H      -1.374597    3.159453    0.233448
H      -1.704022    1.829591    1.364275
H      -0.104397    3.910768    2.191898
H       0.377658    2.251554    2.580386
H       2.357793    4.455251   -0.561195
H       1.755731    5.239716    0.978254
H       2.961841    3.420666    2.330226
H       3.540517    2.678406    0.762800
