18

C      -0.203866    1.550601   -0.094462
C       0.047212    0.049579   -0.019638
C       0.940275   -0.505875   -1.151234
N       1.431389   -1.746769   -0.580829
C       1.384930   -1.819148    0.782254
O       1.768358   -2.731856    1.473403
C       0.748519   -0.481127    1.264276
C       1.798204    0.390961    1.775669
C       2.674109    1.108367    2.180373
H       0.729008    2.112409    0.002742
H      -0.668676    1.815286   -1.050258
H      -0.876138    1.877027    0.704796
H      -0.911243   -0.479373   -0.079804
H       0.371624   -0.684432   -2.069263
H       1.758829    0.189553   -1.387043
H       1.921340   -2.452720   -1.107024
H       0.032931   -0.700271    2.061894
H       3.447112    1.731762    2.556598
