12

O      -0.146575    0.031185   -0.076967
C      -0.071225    1.215991   -0.019734
O       1.108819    1.875044   -0.167191
C       1.099711    3.279072   -0.105246
C       2.317841    3.928186    0.572496
O       2.626531    4.645102   -0.665977
C       1.625090    4.015686   -1.360875
O       1.356219    4.093926   -2.511564
H      -0.920613    1.902021    0.161146
H       0.130244    3.663713    0.230515
H       2.121722    4.623590    1.389600
H       3.110444    3.223291    0.827726
