16

O      -0.005578   -0.016431   -0.005016
C      -0.025507    1.228179    0.007811
C      -1.087708    2.167583    0.014298
O      -0.650436    3.510109   -0.001417
C       0.670326    3.432882    0.006377
C       1.139957    2.159432    0.014750
C       2.615686    2.147842    0.000932
N       2.907425    3.629124   -0.422651
H       3.789669    3.981198   -0.044363
H       2.966491    3.648781   -1.439981
C       1.707354    4.492390    0.002769
H      -2.157106    2.052832   -0.015989
H       3.114502    2.010001    0.970492
H       3.102537    1.497571   -0.732783
H       1.590385    5.311468   -0.715110
H       1.969274    4.926234    0.980746
