23

C      -0.595813    1.363914   -0.421590
C       0.294936    0.212651    0.080106
C       1.083458   -0.406504   -0.981107
C       1.727857   -0.893212   -1.875587
C       2.501528   -1.507793   -2.953260
C       2.033200   -2.917198   -3.320571
C       2.160495   -3.938569   -2.208492
C       0.874497   -3.034334   -4.277401
C       2.275600   -3.367141   -4.740405
H       0.009713    2.155029   -0.872282
H      -1.300566    1.007806   -1.177964
H      -1.166562    1.795517    0.406303
H       0.966114    0.585848    0.864648
H      -0.331722   -0.549660    0.561076
H       2.453432   -0.869101   -3.844696
H       3.562322   -1.544565   -2.666464
H       1.582696   -3.632942   -1.330124
H       1.796989   -4.919199   -2.530522
H       3.205697   -4.055607   -1.897111
H       0.174763   -3.851251   -4.136127
H       0.418410   -2.121180   -4.645296
H       2.763392   -2.680538   -5.425018
H       2.525192   -4.409543   -4.908925
