19

O       0.068695   -0.048131   -0.033363
C       0.034291    1.173785    0.011483
N      -1.140120    1.861816    0.079179
C      -1.319541    3.307526   -0.002622
C      -0.051588    4.042312    0.432122
C       1.162825    3.469205   -0.304193
C       1.301404    1.996819    0.020935
C       2.341096    1.492165    0.972117
N       2.495353    1.300688   -0.469818
H      -1.958860    1.273227    0.021844
H      -1.579855    3.601180   -1.030950
H      -2.165161    3.589345    0.634222
H      -0.170550    5.110433    0.227192
H       0.084547    3.929188    1.514255
H       1.034096    3.593657   -1.387588
H       2.081073    3.998447   -0.034312
H       3.025485    2.206633    1.423043
H       2.085867    0.630655    1.581704
H       2.205906    0.347164   -0.692838
