16

N      -0.067621    1.326370    0.232168
C      -0.029344    0.064994    0.067979
N      -1.112725   -0.775002    0.011256
C      -0.829951   -2.169681   -0.244462
C      -0.921641   -2.649832   -1.721595
N       0.510672   -2.322015   -1.891961
C       0.711998   -2.212232   -0.423332
C       1.207226   -0.813130   -0.076640
O       2.339473   -0.426004    0.037125
H       0.894019    1.672024    0.253494
H      -2.048543   -0.402757    0.024081
H      -1.288064   -2.825012    0.499632
H      -1.156514   -3.720956   -1.782570
H      -1.595397   -2.093871   -2.381797
H       1.087949   -3.005509   -2.364722
H       1.263292   -3.017565    0.068881
