19

C      -0.043378    1.472925   -0.029514
C      -0.033620   -0.041082    0.037383
C      -0.852680   -0.740089    1.107689
C       0.663389   -0.738104    1.172197
N       1.356008   -1.943435    0.804103
C       2.142404   -1.790841   -0.417602
C       1.219664   -1.448401   -1.587419
O       1.417644   -1.827330   -2.724525
N       0.136723   -0.688634   -1.233924
H       0.877676    1.850825   -0.485593
H      -0.888992    1.831150   -0.628824
H      -0.139719    1.908879    0.968874
H      -1.408785   -0.122867    1.805164
H      -1.306888   -1.687044    0.842905
H       1.136294   -0.087773    1.909505
H       1.908776   -2.309809    1.567800
H       2.924276   -1.010691   -0.358432
H       2.633992   -2.732895   -0.667173
H      -0.501499   -0.469826   -1.986640
