19

C       0.059833   -1.196313   -0.049378
C       0.041656    0.007217   -0.011581
C       0.002637    1.426559    0.058459
C       0.265435    2.317527   -1.138375
C       1.171499    2.447700    0.047938
C       0.481564    3.234629    1.142047
C       1.143127    3.844006    2.338254
C       0.451816    4.725738    1.318208
C      -0.696084    2.238530    1.172741
H       0.078986   -2.256848   -0.087477
H       0.684359    1.805591   -1.997864
H      -0.438212    3.111380   -1.378043
H       2.232431    2.233742   -0.005980
H       0.672163    3.712900    3.307479
H       2.228182    3.858152    2.370074
H       1.069566    5.334176    0.665451
H      -0.489148    5.187054    1.600740
H      -1.689045    2.625112    0.919901
H      -0.753964    1.684045    2.112072
