22

C      -0.638609    1.585424    0.118244
C      -0.404390    0.082655   -0.054178
C       0.853275   -0.232192   -0.876015
C       1.061694   -1.720238   -1.032023
N       0.287716   -2.398059   -2.064753
C       1.755024   -2.357900   -2.210905
C       2.326079   -1.549013   -3.343252
C       3.729462   -1.944359   -3.769907
O       1.728114   -0.637022   -3.867064
H       0.201985    2.061955    0.635416
H      -0.751012    2.079433   -0.852840
H      -1.543505    1.784034    0.701129
H      -0.328842   -0.393059    0.933434
H      -1.269041   -0.373248   -0.551201
H       0.774431    0.218730   -1.868258
H       1.735058    0.202734   -0.385520
H       1.210422   -2.256577   -0.093015
H       0.004177   -3.326779   -1.764145
H       2.309779   -3.267190   -1.985990
H       4.090722   -1.257980   -4.536095
H       4.410144   -1.936236   -2.910679
H       3.729439   -2.967600   -4.164287
