22

C       0.372280    1.497328   -0.234756
C      -0.036127    0.049948    0.051887
C       0.709088   -0.557050    1.244152
C       0.293519   -2.014569    1.528116
C       0.996508   -2.605548    2.662079
C       1.587564   -3.063020    3.607249
C       2.313209   -3.644828    4.732335
C       3.357449   -4.691448    4.302609
H       1.442396    1.569475   -0.458561
H      -0.175011    1.905144   -1.090342
H       0.171985    2.143007    0.627458
H      -1.117523    0.003788    0.238241
H       0.143498   -0.565553   -0.839843
H       1.790559   -0.524079    1.064415
H       0.529320    0.045641    2.142709
H      -0.790124   -2.052770    1.705638
H       0.469461   -2.621352    0.629166
H       2.809813   -2.846397    5.299129
H       1.600405   -4.105828    5.428575
H       3.874721   -5.098441    5.176857
H       2.881183   -5.517866    3.767954
H       4.102329   -4.245962    3.637502
