17

C      -0.597852    1.438319   -0.117112
C       0.222229    0.146608   -0.001970
C       0.945893   -0.223278   -1.270514
C       2.125563   -0.841949   -1.247514
N       2.784630   -1.162610   -0.060575
C       2.389229   -0.732126    1.195353
N       2.955779   -1.003829    2.305089
C       1.159318    0.187658    1.209551
O       0.946693    0.889703    2.163752
H       0.049618    2.286221   -0.359405
H      -1.346976    1.341538   -0.908292
H      -1.101917    1.656664    0.825278
H      -0.480257   -0.674452    0.238280
H       0.475004    0.000925   -2.219871
H       2.650553   -1.144290   -2.145778
H       3.628433   -1.711646   -0.112718
H       3.769355   -1.610777    2.172998
