21

C      -0.080194    1.559051   -0.067340
C       0.021172    0.031467    0.026190
C       0.760199   -0.482220    1.256760
C       0.902517   -2.031923    1.418127
C       1.685368   -1.896626    2.757260
C       2.809002   -0.963977    2.261068
C       2.263050   -0.126471    1.381133
C       0.664144   -1.029700    3.521583
C       0.122878   -0.192063    2.638892
H       0.908378    2.028137   -0.104103
H      -0.620453    1.858596   -0.970687
H      -0.613051    1.981960    0.790499
H      -0.988772   -0.398321    0.017335
H       0.522900   -0.352429   -0.871404
H      -0.061369   -2.538315    1.528240
H       1.489701   -2.490781    0.616691
H       2.006902   -2.810223    3.256747
H       3.828140   -0.984767    2.623691
H       2.737688    0.694200    0.859429
H       0.486831   -1.087209    4.587332
H      -0.600434    0.591882    2.821123
