21

C       0.001964    1.724142    0.096101
C      -0.066809    0.206334    0.041380
C      -1.388992   -0.362274   -0.456933
C      -1.707729   -0.020934   -1.911816
O      -2.892839   -0.722925   -2.254091
C       1.176232   -0.565334   -0.266236
C       0.603876   -0.623613    1.148194
C       1.361449   -0.008553    2.258865
O       1.344819   -0.412692    3.396672
H       0.971898    2.084301    0.445646
H      -0.160543    2.154474   -0.897408
H      -0.767089    2.128963    0.763220
H      -1.377674   -1.454583   -0.373235
H      -2.212005   -0.008199    0.175610
H      -1.844262    1.064229   -2.033669
H      -0.863711   -0.319161   -2.554932
H      -3.135697   -0.484822   -3.153457
H       1.109405   -1.472679   -0.856812
H       2.103524   -0.014903   -0.395759
H       0.085806   -1.530725    1.441289
H       1.988378    0.868418    1.977699
