19

C      -0.013404    1.571262    0.009257
C       0.023841    0.035395   -0.015367
C       0.651083   -0.505417   -1.311783
C       0.864513   -2.018517   -1.228813
O       1.403037   -2.536898   -2.412417
C       1.768792   -2.347989   -0.042284
O       2.629181   -3.203506   -0.155740
C       1.523804   -1.591658    1.193902
C       0.724183   -0.515486    1.201378
H       0.999085    1.987549   -0.019014
H      -0.559957    1.956553   -0.856702
H      -0.506791    1.943582    0.912919
H      -1.019423   -0.319797    0.033999
H       0.019005   -0.271374   -2.174059
H       1.621731   -0.022655   -1.482799
H      -0.112743   -2.492520   -1.007408
H       2.096004   -3.152770   -2.122528
H       2.037092   -1.935836    2.086201
H       0.559144    0.018039    2.136312
