19

C      -0.040955    1.584947   -0.056584
C       0.037457    0.059714    0.010619
C       0.786707   -0.575529   -1.190736
O       1.358931   -1.807040   -0.735576
C       1.608372   -1.712588    0.641125
C       2.897988   -1.004004    1.131372
O       2.928706    0.306664    0.553576
C       2.102188    0.100580    1.703774
C       0.774548   -0.526337    1.228064
H       0.959402    2.027379   -0.054445
H      -0.551003    1.910908   -0.969408
H      -0.597629    1.992356    0.793604
H      -0.980478   -0.347897    0.026252
H       0.117656   -0.818454   -2.022870
H       1.570615    0.098663   -1.551899
H       1.463383   -2.691681    1.106137
H       3.848577   -1.428180    1.434635
H       2.294226    0.724639    2.568564
H       0.116352   -0.797449    2.055245
