23

C      -1.708458    0.968186   -0.553020
C      -0.796749   -0.224902   -0.361452
C       0.349395   -0.589378   -1.277192
C       0.555095   -2.062145   -1.586142
C       0.713737    0.299212   -2.454330
C       0.643859   -0.097938    0.156748
C       1.268102    1.271369    0.410270
C       1.068324   -1.070647    1.131855
C       1.444826   -1.847300    1.971554
H      -1.197391    1.839344   -0.967773
H      -2.527889    0.715664   -1.235504
H      -2.155826    1.271527    0.399839
H      -1.318363   -1.085993    0.049581
H      -0.080211   -2.365518   -2.426759
H       1.595570   -2.264052   -1.866381
H       0.315454   -2.694557   -0.729387
H       0.516653    1.358129   -2.284675
H       1.775952    0.194124   -2.703229
H       0.140675   -0.001289   -3.339377
H       0.920024    2.032220   -0.288891
H       1.028383    1.612172    1.422274
H       2.358245    1.214416    0.330455
H       1.770089   -2.539942    2.707269
