18

C      -0.343370    1.548457    0.002884
C      -0.025579    0.081628   -0.001246
C      -0.130403   -0.684480   -1.098450
C       0.140003   -2.131694   -1.083113
O      -0.191968   -2.871531   -1.991235
C       0.848905   -2.661945    0.124166
C       2.160265   -2.028814    0.488548
N       0.997522   -1.832895    1.330666
C       0.371723   -0.511967    1.331349
H       0.546914    2.138080    0.255525
H      -0.716613    1.884217   -0.967086
H      -1.096954    1.783291    0.765287
H      -0.472697   -0.276870   -2.045279
H       0.709110   -3.725610    0.293426
H       2.944511   -2.649653    0.912228
H       2.504103   -1.208302   -0.137882
H       1.051799    0.174953    1.852080
H      -0.528648   -0.567406    1.960894
