19

C      -0.220469    1.525265    0.054619
C       0.090989    0.051747   -0.020800
C      -0.644625   -0.931501    0.867467
C       0.845664   -0.695113    1.070496
O       1.730300   -1.631878    0.498732
C       1.368225   -1.809809   -0.871200
C       0.654951   -0.517794   -1.316341
C       1.340726   -0.077951    2.262428
C       1.734952    0.456534    3.264976
H       0.624529    2.123911   -0.303209
H      -1.093564    1.775015   -0.559050
H      -0.433116    1.830122    1.083116
H      -1.308561   -0.514574    1.616462
H      -0.954750   -1.894794    0.476096
H       2.282733   -2.018813   -1.432446
H       0.704286   -2.679182   -0.974543
H      -0.109338   -0.716958   -2.074438
H       1.366721    0.199762   -1.739316
H       2.090290    0.921567    4.150831
