18

C      -0.041842    1.423725    0.078333
C       0.019039   -0.090270   -0.014497
O       0.701682   -0.436719   -1.207963
C       0.813001   -1.811769   -1.392263
C       1.548823   -2.086870   -2.687363
O       1.981377   -1.283156   -3.458140
O       1.642722   -3.451892   -2.839243
C       2.278724   -3.933647   -3.956779
N       2.363043   -5.180469   -4.093559
H       0.966097    1.847056    0.095989
H      -0.572944    1.838988   -0.782451
H      -0.564036    1.726857    0.990480
H       0.544877   -0.514632    0.857101
H      -0.995449   -0.522736   -0.021711
H       1.366972   -2.306797   -0.575783
H      -0.168354   -2.314300   -1.446458
H       2.644179   -3.141388   -4.610389
H       2.854229   -5.399249   -4.959147
