11

N      -0.019975    1.309799    0.005771
C       0.057100   -0.041565    0.000975
O       1.069766   -0.702870   -0.009373
C      -1.294941   -0.704397    0.010209
N      -2.427032   -0.102343    0.021694
O      -3.379555   -1.137795    0.026382
C      -2.726959   -2.339622    0.017031
O      -3.213370   -3.415838    0.017638
O      -1.371901   -2.047846    0.006534
H       0.836385    1.838692    0.000637
H      -0.906084    1.787977    0.014910
