18

C      -0.315655    1.350626   -0.108954
C       0.020894   -0.108891    0.062438
N      -1.088473   -1.036141    0.364485
C      -0.458164   -1.469138    1.642485
C       0.847246   -0.768666    1.210849
N       1.608231   -1.555540    0.208962
C       1.064275   -0.754638   -0.918024
C       0.556537   -1.519325   -2.055910
N       0.160324   -2.087254   -2.981044
H       0.583741    1.959579   -0.243798
H      -0.953270    1.494313   -0.989708
H      -0.856230    1.729950    0.764688
H      -1.997057   -0.597247    0.447710
H      -0.900889   -1.016800    2.539842
H      -0.400456   -2.554159    1.767581
H       1.432028   -0.223016    1.953245
H       2.615661   -1.508125    0.296720
H       1.761330    0.004619   -1.298502
