21

C      -2.717019   -4.315294   -1.492620
O      -1.494211   -3.665792   -1.122964
C      -1.096010   -2.673773   -1.949668
O      -1.720612   -2.333610   -2.924167
C       0.236991   -2.101438   -1.511692
C       1.386595   -2.699320   -2.325499
C       1.437857   -2.263813   -3.777674
C       2.691825   -2.926264   -1.601219
C       1.819569   -4.103104   -1.972111
H      -3.542785   -3.599643   -1.512915
H      -2.627358   -4.772828   -2.481189
H      -2.890592   -5.077428   -0.732782
H       0.200816   -1.017451   -1.660937
H       0.381954   -2.305012   -0.448381
H       1.592655   -1.180980   -3.855184
H       2.260424   -2.757433   -4.304210
H       0.504758   -2.500079   -4.297352
H       3.610435   -2.775521   -2.158631
H       2.758300   -2.648637   -0.554426
H       1.287714   -4.615660   -1.177976
H       2.150296   -4.752022   -2.776071
