16

C      -0.068246    1.502760    0.052519
C      -0.040280    0.011138   -0.026804
C       0.064111   -0.772459   -1.105749
C       0.047754   -2.250809   -0.782076
C      -0.004986   -2.272140    0.738858
O       1.109166   -1.660971    1.384769
C      -0.085490   -0.864774    1.197932
C      -0.757162   -0.443905    2.401581
N      -1.311752   -0.068313    3.343739
H       0.793638    1.885582    0.612216
H      -0.056484    1.949463   -0.944421
H      -0.964156    1.854590    0.577207
H       0.189778   -0.404442   -2.117950
H      -0.824724   -2.759318   -1.210802
H       0.937522   -2.772142   -1.154977
H      -0.466011   -3.091132    1.283050
