23

C       0.019548    1.547722   -0.241522
C       1.140274    2.433677    0.331408
C       2.587940    2.169587   -0.143568
C       2.743257    1.919389   -1.649872
C       2.432335    0.538743   -2.203206
O       3.211684   -0.575708   -1.756873
C       1.794443   -0.620023   -1.543341
C       1.314951   -0.701365   -0.108210
C       0.016615    0.071162    0.181742
H      -0.939578    1.984664    0.062956
H       0.032634    1.612067   -1.335987
H       0.891539    3.470709    0.070504
H       1.114905    2.390293    1.428444
H       3.180628    3.055498    0.113051
H       3.051294    1.347410    0.406698
H       2.124742    2.637933   -2.205378
H       3.778476    2.136188   -1.944663
H       2.326314    0.559487   -3.292278
H       1.279810   -1.308498   -2.219803
H       1.160513   -1.759557    0.136029
H       2.115405   -0.358719    0.548373
H      -0.188456   -0.000800    1.257595
H      -0.824292   -0.427881   -0.317461
