22

C      -0.117643    1.298049   -0.462349
C      -0.013751   -0.121139    0.093977
O       0.562485   -0.123397    1.402677
C      -1.358655   -0.856442    0.077283
C      -1.231889   -2.311624    0.546703
N      -2.503691   -3.016770    0.600148
C      -3.082507   -3.541292   -0.517785
C      -4.412363   -4.247935   -0.298559
O      -2.565934   -3.458160   -1.619299
H       0.854379    1.796644   -0.416238
H      -0.458222    1.291267   -1.502457
H      -0.835759    1.891568    0.118244
H       0.703166   -0.688605   -0.513186
H       0.025115    0.456452    1.954210
H      -2.070887   -0.319541    0.721191
H      -1.773314   -0.849597   -0.936039
H      -0.581102   -2.856795   -0.143849
H      -0.773584   -2.342584    1.537949
H      -2.986827   -3.081394    1.479598
H      -5.172813   -3.768526   -0.920663
H      -4.319134   -5.282669   -0.638728
H      -4.749756   -4.245269    0.741341
