18

C       0.059445    1.510533    0.187967
C      -0.127605    0.033948    0.004719
C      -0.900280   -0.826221    0.922495
N       0.577867   -0.959275    0.901745
C       1.018579   -1.697634   -0.329652
C       0.006457   -2.171211   -1.295345
C       0.330629   -0.686815   -1.288260
C       0.964518   -0.061554   -2.451678
O       1.445957   -0.675093   -3.381099
H       1.062106    1.825050   -0.121537
H      -0.670248    2.074977   -0.404262
H      -0.068186    1.779652    1.239705
H      -1.237302   -0.367142    1.847419
H      -1.539918   -1.629757    0.578240
H       2.057147   -2.000440   -0.366328
H       0.434780   -2.655605   -2.167285
H      -0.974855   -2.533425   -1.015210
H       0.993417    1.049530   -2.431927
