19

C      -0.450224    1.330172   -0.072790
C       0.065016   -0.109489   -0.013643
C       1.050525   -0.419359   -1.133594
O       0.773675   -0.356998    1.210431
C      -0.045268   -0.600791    2.344229
C      -0.761706   -1.886975    2.253750
C      -1.358695   -2.925244    2.160843
C       0.802694   -0.553592    3.538707
C       1.475280   -0.500497    4.530944
H       0.384625    2.034497   -0.003503
H      -0.976546    1.506143   -1.016384
H      -1.151755    1.550227    0.737895
H      -0.782636   -0.806802   -0.078383
H       1.925533    0.234273   -1.060527
H       1.390101   -1.455781   -1.066175
H       0.583072   -0.264638   -2.110582
H      -0.803285    0.194365    2.442591
H      -1.879181   -3.848412    2.087856
H       2.077241   -0.459512    5.405024
