19

C       0.095385    1.586620    0.121229
C      -0.018669    0.094163    0.059668
C      -1.311773   -0.711122   -0.166796
C      -0.771570   -1.785508    0.844167
N      -0.678678   -3.174064    0.453137
C      -1.414006   -4.164217    1.032294
O      -2.240934   -4.003054    1.903795
C       0.529458   -0.984993    0.960930
N       1.135898   -0.701622   -0.341769
H       1.096895    1.879466    0.446189
H      -0.082473    2.032857   -0.864371
H      -0.638153    2.008954    0.815957
H      -2.222123   -0.226836    0.194085
H      -1.476093   -1.047169   -1.196418
H      -1.350754   -1.768284    1.767618
H      -0.005128   -3.440434   -0.248300
H      -1.167888   -5.158238    0.608503
H       1.166401   -0.923563    1.836780
H       0.921729   -1.391713   -1.060487
