19

O       0.138699    1.377168    0.067428
C       0.040443   -0.038739    0.094753
C      -1.405101   -0.523753   -0.062581
C      -2.028931    0.027446   -1.341828
O      -3.158163   -0.220795   -1.699644
C      -1.526560   -2.039640   -0.003490
C      -1.795280   -2.731939    1.322175
C      -2.873284   -2.660943    0.280807
O      -3.955263   -1.824496    0.539509
H      -0.273796    1.720837    0.866656
H       0.647820   -0.391528   -0.747204
H       0.476749   -0.465686    1.008259
H      -2.010082   -0.107732    0.755400
H      -1.385204    0.694954   -1.949623
H      -0.889863   -2.568104   -0.709257
H      -1.315308   -3.683871    1.519418
H      -1.930739   -2.099718    2.193193
H      -3.113948   -3.579495   -0.254821
H      -4.079790   -1.292340   -0.263247
