17

C      -0.118738    1.523535   -0.006004
N       0.144203    0.097408    0.021530
C       0.721668   -0.544330   -1.190525
C       1.371089   -1.890891   -0.708998
C       1.534049   -1.608801    0.760212
C       0.819500   -0.490049    1.059353
O       0.837444   -0.179232    2.342696
N       1.635992   -1.189630    2.993824
C       2.007994   -2.007601    2.025527
H       0.779526    2.112955   -0.252560
H      -0.889782    1.740892   -0.750401
H      -0.485946    1.840682    0.972300
H      -0.053579   -0.691159   -1.947022
H       1.492546    0.116662   -1.615511
H       0.695999   -2.735008   -0.896978
H       2.298601   -2.091564   -1.252299
H       2.624399   -2.852511    2.302977
