16

N       0.370659    1.209124    0.002725
C       0.060818   -0.020736    0.000869
N      -1.242061   -0.489184    0.011280
C      -2.430655    0.194523    0.025640
N      -2.652610    1.453661    0.032106
C      -4.107523    1.681967    0.047691
C      -4.823354    0.314018    0.049760
C      -3.666615   -0.667623    0.035209
O      -3.667122   -1.875389    0.031416
H       1.384410    1.307441   -0.006238
H       0.767290   -0.860217   -0.008839
H      -1.377444   -1.491875    0.009398
H      -4.354505    2.282563    0.929798
H      -4.372294    2.289308   -0.824573
H      -5.443739    0.143644    0.934634
H      -5.460204    0.149895   -0.824562
