17

C      -0.343350    1.264958   -0.101828
C       0.095464   -0.157798    0.084743
O      -0.516719   -0.917271    1.131721
C       0.900004   -0.706094    1.179736
C       1.678860   -1.879367    0.633344
O       1.070164   -2.194292   -0.615380
C       0.412082   -1.036160   -1.133366
C      -0.758677   -1.427516   -1.908763
C      -1.730904   -1.698260   -2.559618
H       0.399602    1.832288   -0.672000
H      -1.290033    1.299798   -0.650551
H      -0.488288    1.747663    0.867144
H       1.279043   -0.111315    2.006712
H       2.737620   -1.598121    0.511093
H       1.623766   -2.773351    1.262532
H       1.099010   -0.466981   -1.784416
H      -2.591039   -1.954410   -3.127598
