16

O      -0.028295    1.479444    0.292243
C       0.075493    0.093441    0.002722
C      -1.289401   -0.533104   -0.003368
C      -1.997773   -1.188913    1.184272
O      -3.259002   -0.812268    1.629601
C      -1.874237   -1.953086   -0.091092
N      -2.835545   -1.485801   -1.097935
C      -2.374925   -0.163168   -0.996800
O      -2.714396    0.862414   -1.523094
H      -0.631109    1.857961   -0.360246
H       0.574559   -0.077765   -0.963712
H       0.709742   -0.344503    0.780640
H      -1.298834   -1.491563    1.968237
H      -3.194376    0.067695    2.016905
H      -1.365129   -2.900199   -0.214789
H      -3.823302   -1.709214   -1.043823
