23

C      -0.059587    1.469400    0.181206
C      -0.090207   -0.053594    0.017982
C       0.665060   -0.541671   -1.211608
C       2.219003   -0.428339   -1.235537
C       2.266408   -1.811266   -1.919706
C       2.626267   -1.936088   -3.417571
C       3.715918   -2.907578   -2.926909
O       3.307290   -2.735429   -1.554672
C       0.826187   -2.073409   -1.431317
H       0.968087    1.837869    0.270785
H      -0.515343    1.968835   -0.681196
H      -0.605293    1.786010    1.075496
H       0.338084   -0.529010    0.910811
H      -1.132164   -0.396166   -0.039551
H       0.242863   -0.075490   -2.110123
H       2.682918    0.415042   -1.754317
H       2.636378   -0.499808   -0.225195
H       1.850870   -2.379789   -4.045473
H       2.989292   -1.019536   -3.886889
H       3.613864   -3.948395   -3.257023
H       4.751588   -2.585245   -3.089014
H       0.849421   -2.610525   -0.477176
H       0.138672   -2.584037   -2.111597
