21

C       0.038095    1.650341    0.098103
C       0.020519    0.126047    0.018014
C      -1.394764   -0.463891   -0.007841
C      -2.253476   -0.013962   -1.209782
C      -3.550025   -0.678976   -1.248154
C      -4.611988   -1.241951   -1.254481
C       0.985798   -0.499784   -1.027113
O       1.710813   -1.213182   -0.008113
C       0.940579   -0.595009    1.040017
H       1.062881    2.023842    0.189414
H      -0.398793    2.111110   -0.794014
H      -0.527328    2.005904    0.967267
H      -1.324751   -1.557318   -0.022015
H      -1.917106   -0.198172    0.919470
H      -2.407436    1.071122   -1.177772
H      -1.714113   -0.217451   -2.144701
H      -5.553072   -1.733044   -1.271769
H       0.535369   -1.180671   -1.761052
H       1.623649    0.220065   -1.557799
H       1.552968    0.071857    1.662103
H       0.454027   -1.336423    1.686511
