22

C      -0.073432    1.559183    0.249382
C      -0.014604    0.030072    0.079410
C       0.630486   -0.599470    1.331135
C      -1.453955   -0.501115   -0.076354
C       0.785216   -0.425487   -1.150716
C       1.069027    0.434744   -2.368368
C       2.195842   -0.021827   -1.473168
O       2.838628    0.893778   -0.628144
H       0.925873    1.990898    0.321087
H      -0.598569    2.034503   -0.586034
H      -0.624901    1.807199    1.162952
H       0.039464   -0.378806    2.227142
H       0.694221   -1.689331    1.234683
H       1.642316   -0.213259    1.480525
H      -1.925539   -0.102960   -0.981254
H      -1.470662   -1.594814   -0.142074
H      -2.070260   -0.209497    0.781161
H       0.589714   -1.471194   -1.381624
H       0.969548    0.005874   -3.360059
H       0.808196    1.485190   -2.303232
H       2.853578   -0.804074   -1.853122
H       3.386010    1.467550   -1.174304
