14

C       0.034740    1.504355    0.046622
C      -0.047181    0.011264    0.017890
C      -1.169265   -0.720688   -0.171928
C      -1.115017   -2.161909   -0.178234
O      -2.046228   -2.929147   -0.337462
C       0.282477   -2.649257    0.043556
O       0.438938   -3.975024    0.055066
N       1.333800   -1.921138    0.221896
O       1.164998   -0.539237    0.208960
H       0.713545    1.863585   -0.733283
H      -0.951545    1.942827   -0.109226
H       0.430481    1.845624    1.008377
H      -2.123085   -0.231720   -0.321629
H       1.378373   -4.159495    0.205669
