19

C       0.104710    1.452885    0.178240
C      -0.148126    0.001805   -0.223175
C       0.747903   -0.459415   -1.352366
O       1.561079    0.215499   -1.932460
O       0.524170   -1.762535   -1.646386
C       1.293470   -2.280891   -2.729490
C       2.765346   -2.625757   -2.445145
O       2.534319   -4.011731   -2.784343
C       1.114006   -3.793251   -2.910506
H       1.135877    1.592983    0.512144
H      -0.059370    2.126615   -0.666299
H      -0.565032    1.746107    0.991124
H      -0.000043   -0.683179    0.619930
H      -1.186255   -0.152220   -0.541655
H       1.135595   -1.666997   -3.616964
H       3.511757   -2.155690   -3.092478
H       3.053516   -2.495681   -1.394703
H       0.542861   -4.260391   -2.098436
H       0.725721   -4.133139   -3.876703
