21

C      -0.275655    1.355028    0.129211
O      -0.228771   -0.040284   -0.054963
C       0.805872   -0.448153   -0.924741
C       0.721362   -1.957984   -1.042707
C      -0.435996   -2.542761   -1.877595
O       0.480540   -3.292430   -2.710195
C       1.634476   -2.715498   -2.042252
C       2.476241   -1.956669   -3.058870
O       2.863378   -2.836017   -4.096725
H       0.658396    1.740106    0.567942
H      -0.453280    1.887174   -0.818719
H      -1.100780    1.566955    0.813251
H       0.687659    0.036448   -1.908183
H       1.789313   -0.141597   -0.527383
H       0.768930   -2.382175   -0.037455
H      -1.134864   -3.200541   -1.350697
H      -1.007135   -1.804440   -2.454812
H       2.248964   -3.506453   -1.594194
H       1.913940   -1.097708   -3.457242
H       3.394266   -1.576059   -2.597173
H       2.048370   -3.262028   -4.391941
