22

C      -0.868012    1.173445   -0.088382
C       0.070325   -0.023907   -0.143081
C       1.457416    0.128154   -0.825982
C       2.028270   -0.844766    0.232298
O       3.338446   -0.683903    0.717837
C       0.793456   -0.544983    1.152774
C       1.103856    0.556571    2.170285
C       0.162039   -1.748839    1.844827
H      -0.380119    2.055794    0.338115
H      -1.210461    1.442177   -1.093972
H      -1.757690    0.959452    0.514742
H      -0.459847   -0.869246   -0.597687
H       1.554142   -0.142218   -1.880197
H       1.859518    1.139543   -0.691135
H       1.980279   -1.878281   -0.125892
H       3.452287    0.237563    0.971873
H       1.522066    1.457787    1.707807
H       0.200459    0.862435    2.707940
H       1.826617    0.195987    2.909866
H       0.825082   -2.152019    2.619330
H      -0.785718   -1.482041    2.328018
H      -0.043627   -2.553250    1.130160
