15

N       0.100612    1.265590    0.006297
C      -0.026441    0.005605    0.003872
N      -1.247767   -0.659544    0.012095
C      -1.314405   -2.118638    0.008696
C      -2.806056   -2.411669    0.020052
N      -3.286524   -3.584222    0.020769
N      -3.414600   -1.170722    0.028476
C      -2.526306   -0.083764    0.024019
O      -2.840474    1.072848    0.029858
H       1.089549    1.509763   -0.001150
H       0.798789   -0.718377   -0.004866
H      -0.849533   -2.550271   -0.883814
H      -0.835120   -2.555054    0.891204
H      -4.307177   -3.580464    0.029153
H      -4.408602   -1.007759    0.037066
