16

C      -0.021907    1.437270   -0.051043
N      -0.072565   -0.007872   -0.094176
C      -1.196361   -0.826026    0.019143
C      -0.776956   -2.095254   -0.066688
C      -1.448445   -3.419784   -0.042090
O      -1.372644   -4.106006   -1.284093
O       0.598834   -2.100902   -0.239744
C       1.048075   -0.793618   -0.262506
O       2.196815   -0.467112   -0.401556
H       1.022391    1.726652   -0.176607
H      -0.616954    1.876358   -0.858417
H      -0.387809    1.816261    0.908833
H      -2.187969   -0.427162    0.150277
H      -1.027757   -4.032089    0.770922
H      -2.511105   -3.272038    0.169748
H      -0.438908   -4.220005   -1.492319
