22

C      -0.203147    1.725915    0.087524
C      -0.193342    0.207719   -0.027616
C       0.197653   -0.656071    1.220499
C      -1.129825   -1.414857    1.088590
C      -2.280862   -0.460084    1.213103
C      -1.538276   -0.533117   -0.095383
N       1.149227    2.237884    0.291264
C       1.913846    2.543013   -0.913391
C       1.374072    3.634892   -0.056185
H      -0.678041    2.159862   -0.813705
H      -0.807522    2.039502    0.946710
H       0.435554   -0.076140   -0.877856
H       1.080575   -1.272125    1.040369
H       0.342767   -0.109367    2.157798
H      -1.258337   -2.483382    1.211131
H      -3.267496   -0.912641    1.199342
H      -2.206569    0.410967    1.860022
H      -2.045095   -0.815255   -1.011082
H       2.969409    2.287711   -0.886610
H       1.431592    2.387716   -1.878005
H       0.533561    4.204440   -0.450848
H       2.027991    4.191393    0.609497
