20

C      -0.090674    1.480111    0.132394
C      -0.063329   -0.006996    0.004609
C      -0.203010   -0.826076   -1.100518
C      -0.104370   -2.185571   -0.676828
C       0.090196   -2.158385    0.683595
C       0.346545   -3.046363    1.864389
C       0.110796   -2.079022    3.059206
C       0.383660   -0.662624    2.496144
N       0.104989   -0.843013    1.082329
H       0.849750    1.885147    0.528307
H      -0.254372    1.930945   -0.849299
H      -0.894622    1.829223    0.793506
H      -0.374941   -0.478509   -2.109195
H      -0.175079   -3.063835   -1.300132
H      -0.312326   -3.918342    1.908200
H       1.377198   -3.426662    1.866912
H      -0.933441   -2.142067    3.379170
H       0.737828   -2.305472    3.924316
H      -0.261353    0.101014    2.941275
H       1.426199   -0.353932    2.654322
