17

N       0.089326    1.388420    0.272484
C      -0.008823    0.003807    0.064566
C      -1.116353   -0.815811   -0.002467
N      -0.641012   -2.087352   -0.147970
N       0.701542   -2.150268   -0.182973
C       1.091669   -0.884941   -0.051125
N       2.432581   -0.459238   -0.071664
C       3.207138   -0.577821    1.179302
C       3.471034   -1.480867    0.028971
H       0.982735    1.727853   -0.066517
H      -0.654967    1.909051   -0.174212
H      -2.172474   -0.602091    0.035827
H      -1.172143   -2.928783   -0.281840
H       3.871377    0.254219    1.392706
H       2.694788   -1.000292    2.039308
H       3.141378   -2.511213    0.113006
H       4.337434   -1.314943   -0.604559
