20

C      -0.066527    1.517768    0.084572
C       0.054887   -0.004949    0.065453
N       0.687401   -0.495662   -1.152535
C       2.094962   -0.141435   -1.326667
C       2.701785   -1.278797   -2.163835
O       3.702479   -1.200388   -2.829369
C       1.782556   -2.448814   -2.044947
C       1.430139   -2.866602   -0.613121
C       0.542699   -1.921191   -1.370800
H       0.915717    2.000575    0.088209
H      -0.614574    1.870334   -0.794043
H      -0.598451    1.845020    0.982899
H       0.595565   -0.345852    0.969986
H      -0.945705   -0.450360    0.114705
H       2.228572    0.813603   -1.842502
H       2.649324   -0.074873   -0.371850
H       1.779076   -3.191015   -2.832038
H       1.107560   -3.895326   -0.497039
H       2.039844   -2.491938    0.201884
H      -0.447392   -2.244818   -1.675661
