17

O       0.524983    0.316041   -1.192153
C       0.040966   -0.400247   -0.102471
C       0.176442    0.170396    1.332282
C      -1.216635   -0.445201    1.667989
C      -2.114449    0.269775    2.546013
C      -2.855419    0.872006    3.276593
C      -1.519957   -0.507663    0.116367
C      -2.210472    0.646259   -0.418076
C      -2.711573    1.630013   -0.897947
H      -0.026644    1.103866   -1.290705
H       0.469884   -1.404230   -0.169927
H       1.027845   -0.143631    1.938231
H       0.119978    1.261732    1.319988
H      -1.092003   -1.473636    2.022705
H      -3.511730    1.403638    3.919902
H      -1.992272   -1.431577   -0.226827
H      -3.198493    2.483145   -1.302133
