16

C      -0.037632    1.446289    0.011360
C       0.080608   -0.047866   -0.031642
C       0.566785   -0.946217   -1.178542
C       0.054683   -1.894881   -0.095676
C       0.585187   -1.029875    1.082893
C      -0.810450   -1.041834    1.691664
N      -1.159526   -0.976613    0.207752
H       0.947159    1.913155   -0.098057
H      -0.677271    1.802498   -0.802555
H      -0.470253    1.787161    0.957663
H      -0.018263   -0.905487   -2.102103
H       1.641776   -0.953960   -1.378567
H      -0.074185   -2.978367   -0.115013
H       1.575170   -1.062152    1.552270
H      -1.152539   -1.963205    2.174885
H      -1.142873   -0.169444    2.263666
