17

C       0.028804    1.538225   -0.041232
C       0.102413    0.031239   -0.008611
O      -0.971772   -0.620635   -0.617799
C       1.351429   -0.756677   -0.162350
O       2.471133   -0.009451    0.369231
C       1.928472   -0.099439    1.654637
O       2.423995    0.269170    2.669458
C       0.679553   -0.800028    1.200105
C      -0.101961   -1.829672    1.957117
H       0.938676    1.996424    0.348268
H      -0.117036    1.875290   -1.072293
H      -0.816401    1.894609    0.559374
H      -1.788813   -0.285567   -0.230868
H       1.553341   -1.528720   -0.892265
H      -0.508876   -1.400779    2.878873
H      -0.931435   -2.196717    1.348171
H       0.523233   -2.683533    2.235945
