20

C       0.215814    1.525161    0.170208
C       0.095158    0.042296    0.015898
C      -0.059453   -0.695426   -1.092346
C      -0.128607   -0.250627   -2.516043
O       0.910331   -0.909082   -3.242210
C      -0.162586   -2.166842   -0.737615
N      -0.002689   -2.254999    0.730429
C       1.307776   -1.817095    1.218552
C       0.159883   -0.863656    1.204716
H       1.161979    1.791657    0.657304
H       0.166516    2.050355   -0.786351
H      -0.585141    1.917715    0.809605
H      -1.113864   -0.520842   -2.934328
H      -0.033953    0.842534   -2.589850
H       0.764005   -0.746080   -4.179030
H      -1.142704   -2.579585   -1.018303
H       0.594126   -2.773247   -1.247559
H       1.620518   -2.289051    2.146611
H       2.102550   -1.641525    0.495870
H      -0.337096   -0.579605    2.130204
