20

C       0.016206    1.544471    0.028581
C       0.046138    0.034910    0.016345
C      -0.899209   -0.781981    0.860296
C       0.583217   -0.802899    1.160632
C       1.463484   -1.940243    0.608833
O       1.092350   -3.245828    1.009644
C       1.437394   -1.766661   -0.915078
N       0.087884   -2.039136   -1.456431
C       0.540934   -0.640215   -1.258908
H       0.987032    1.968475   -0.255383
H      -0.734427    1.936209   -0.668532
H      -0.230384    1.922117    1.025551
H      -1.523601   -0.242455    1.565488
H      -1.365401   -1.649721    0.411181
H       0.907377   -0.332432    2.083089
H       2.487039   -1.801114    0.972885
H       0.292714   -3.452478    0.509227
H       2.304410   -2.046448   -1.504806
H       0.156673   -2.286312   -2.440176
H       0.699664   -0.024396   -2.138687
