20

C       0.150910    1.308404    0.272805
O      -0.028242   -0.066126    0.015098
C       0.603820   -0.563488   -1.164611
C       2.117228   -0.699079   -0.993761
C      -0.070766   -1.917740   -1.427316
O      -0.030916   -2.727900   -0.252012
C      -1.523776   -1.787450   -1.898071
O      -2.127192   -3.060105   -1.995578
H       1.194811    1.561373    0.503353
H      -0.175816    1.922450   -0.579811
H      -0.465514    1.554761    1.140773
H       0.381690    0.113632   -2.006122
H       2.570962   -1.046704   -1.927161
H       2.583743    0.255083   -0.734612
H       2.339473   -1.426814   -0.208986
H       0.496182   -2.466903   -2.187337
H      -0.268391   -2.135734    0.474963
H      -2.068146   -1.128977   -1.201914
H      -1.560345   -1.328017   -2.892907
H      -1.829274   -3.536670   -1.209180
