20

C      -0.114113    1.459824    0.105691
C      -0.017231   -0.038880   -0.013893
C      -0.434281   -0.762842   -1.283010
C      -0.210394   -2.182661   -0.822914
C       0.912785   -2.251362    0.143696
N      -0.499958   -2.343278    0.639144
C      -0.352112   -0.932228    1.160592
C       1.083901   -0.826271    0.707417
C       2.319958   -0.280778    1.354235
H       0.555522    1.964678   -0.600011
H      -1.134478    1.801518   -0.101795
H       0.146614    1.803299    1.111335
H      -1.480932   -0.566532   -1.542852
H       0.191630   -0.507531   -2.146102
H      -0.479935   -3.037574   -1.433068
H       1.610884   -3.074302    0.255024
H      -0.863332   -0.628587    2.065880
H       2.142086    0.703263    1.797931
H       2.674016   -0.942712    2.152814
H       3.135297   -0.172956    0.628205
