21

C       0.428535    1.560758    0.001315
C      -0.028067    0.089176    0.013462
C       0.330532   -0.608163   -1.273022
C       0.915677   -1.799620   -1.357521
C       1.295830   -2.648436   -0.177306
C       1.160759   -1.951329    1.163715
C       1.176317   -2.851502    2.378078
O       1.951169   -0.756866    1.296500
C       0.524801   -0.624704    1.230704
H       1.519410    1.614147   -0.050066
H       0.014215    2.090933   -0.861963
H       0.101679    2.082139    0.907044
H      -1.125335    0.082534    0.114226
H       0.083700   -0.069002   -2.185368
H       1.134537   -2.219560   -2.336418
H       0.678843   -3.559054   -0.165974
H       2.331360   -3.002377   -0.285373
H       2.089597   -3.457072    2.396364
H       1.143776   -2.258361    3.295344
H       0.321003   -3.535774    2.371853
H       0.070454   -0.326801    2.178565
