23

C      -0.031898    1.594770    0.063823
C       0.000298    0.064065    0.074713
C      -1.393490   -0.559371   -0.094028
C      -1.420579   -2.071575   -0.025355
C      -1.023883   -2.897359    1.250312
C      -1.791125   -3.997281    0.480711
C      -2.757923   -2.890491    0.003875
O      -0.965916   -4.235411   -0.671653
C      -0.662177   -2.886859   -1.090503
H       0.970304    2.016633    0.187587
H      -0.439797    1.975883   -0.879075
H      -0.659363    1.982398    0.874245
H       0.664230   -0.291293   -0.722932
H       0.441096   -0.286515    1.016622
H      -2.059546   -0.158131    0.681808
H      -1.821394   -0.236464   -1.054194
H       0.035618   -3.076438    1.450219
H      -1.539110   -2.551185    2.148794
H      -2.103746   -4.947197    0.910962
H      -3.442725   -2.540561    0.779119
H      -3.285668   -3.059482   -0.938640
H      -1.033736   -2.711942   -2.108326
H       0.422308   -2.727993   -1.076826
