16

C      -0.581905   -1.145755   -0.643606
C      -0.234075   -0.044245   -0.311404
C       0.165579    1.291616    0.094030
C      -0.110002    1.706120    1.567781
C       1.400834    1.878658    1.639222
C       2.216588    2.982049    2.224914
C       2.366085    1.548101    2.724547
O       1.599497    1.432591    0.293437
H      -0.882838   -2.120112   -0.940414
H      -0.187911    2.026272   -0.639923
H      -0.705498    2.612453    1.687602
H      -0.517820    0.905925    2.186388
H       3.018333    3.380785    1.612536
H       1.727253    3.709390    2.865160
H       1.978601    1.293619    3.706019
H       3.264202    1.012299    2.436582
