19

C       0.056809    1.470533    0.009963
O       1.192592    0.585375   -0.009162
C      -0.104064    0.021579    0.007228
C      -0.577166   -0.896564    1.130652
C      -2.085636   -0.996427    0.797839
C      -2.102581   -0.985851   -0.772747
C      -0.603646   -0.883950   -1.106858
O       0.011577   -2.140323   -0.781536
C       0.105968   -2.192238    0.659794
H      -0.080428    2.030917    0.933923
H      -0.099985    2.041445   -0.904536
H      -0.330827   -0.594799    2.148319
H      -2.533122   -1.902250    1.215562
H      -2.631722   -0.141586    1.206194
H      -2.523259   -1.899429   -1.197577
H      -2.665100   -0.134182   -1.167729
H      -0.341378   -0.617921   -2.130485
H       1.162507   -2.228069    0.953295
H      -0.394780   -3.095913    1.027438
