17

C       0.047033    1.518890    0.010600
C       0.010702    0.028171    0.002425
C       0.843506   -0.990008   -0.763967
C       0.839929   -0.998225    0.761703
C      -0.348779   -2.000385    0.746625
C      -0.345285   -1.992182   -0.765302
C      -1.206720   -0.968794   -0.005756
C      -2.603260   -0.770323   -0.007942
C      -3.793544   -0.579444   -0.009644
H       1.082336    1.877543    0.013226
H      -0.449830    1.935538   -0.872922
H      -0.451028    1.925978    0.897898
H       1.659919   -0.828263   -1.454922
H       1.653091   -0.843949    1.458175
H      -0.687811   -2.757481    1.440552
H      -0.681103   -2.741684   -1.468967
H      -4.842334   -0.416450   -0.011179
