23

C       0.013111    1.369829   -0.073119
O      -0.001818   -0.021918    0.131930
C      -1.281224   -0.619998    0.036337
C      -1.788925   -0.760368   -1.406733
C      -3.165635   -1.445295   -1.433593
C      -3.138387   -2.799672   -0.710791
C      -2.593841   -2.653779    0.717993
C      -1.207661   -1.988413    0.722400
O      -0.253797   -2.771718    0.011657
H       1.029869    1.713930    0.133595
H      -0.244121    1.653315   -1.104208
H      -0.680386    1.890464    0.607786
H      -2.006224   -0.014771    0.610878
H      -1.852257    0.223630   -1.882731
H      -1.057568   -1.350997   -1.967510
H      -3.906024   -0.791329   -0.950829
H      -3.498679   -1.574416   -2.469288
H      -4.140108   -3.242562   -0.689655
H      -2.493312   -3.491330   -1.264253
H      -3.281217   -2.050829    1.326509
H      -2.526670   -3.633046    1.209678
H      -0.867075   -1.827271    1.756285
H      -0.177079   -3.619124    0.460684
