18

C       0.011388    1.476320    0.008406
C       0.043501   -0.025977   -0.024142
N      -0.822874   -0.842927    0.856979
C       0.650144   -0.907058    1.019531
C       1.355490   -1.979418    0.173425
C       0.314266   -2.266360   -0.955235
C       0.482292   -0.756870   -1.312637
C       1.968273   -1.024183   -0.903128
O       3.051164   -0.741594   -1.308521
H       0.917944    1.894305   -0.442608
H      -0.847769    1.868386   -0.547909
H      -0.054440    1.848572    1.036358
H      -1.192276   -0.235384    1.585537
H       1.116341   -0.518455    1.917369
H       1.926244   -2.762582    0.666363
H       0.714622   -2.922570   -1.729511
H      -0.674797   -2.576951   -0.629633
H       0.201614   -0.339926   -2.277460
