19

O       0.115820    1.625662   -0.062784
C       0.101159    0.203592    0.031237
C       0.689462   -0.468597   -1.212392
C      -0.065808   -0.082484   -2.499217
C       0.530886   -0.652664   -3.699859
C       1.044386   -1.133175   -4.674770
C       0.807367   -0.253554    1.292909
C       0.086327   -0.472709    2.548987
O       0.507840   -1.575758    1.738889
H       1.029927    1.905945   -0.187736
H      -0.958359   -0.064993    0.120397
H       1.746981   -0.187773   -1.312792
H       0.665915   -1.554170   -1.072495
H      -1.110633   -0.409955   -2.417282
H      -0.097171    1.010217   -2.577229
H       1.486527   -1.553569   -5.543555
H       1.868135    0.008678    1.345750
H       0.606802   -0.367620    3.499419
H      -0.988641   -0.302347    2.584038
