21

C      -0.193809    1.481400    0.132583
C       0.143558    0.029036    0.027056
O      -0.679410   -0.901738    0.763284
C       0.745073   -0.909029    0.991097
C       1.309680   -1.793502   -0.125503
O       0.857546   -3.118803   -0.152319
C       0.713211   -0.754606   -1.183194
C      -0.314061   -1.313692   -2.160500
C       1.830589    0.005288   -1.897315
H       0.641224    2.101996   -0.206268
H      -1.065351    1.724289   -0.485542
H      -0.428226    1.744016    1.167521
H       1.077576   -0.770731    2.014696
H       2.401833   -1.823471   -0.162402
H      -0.080665   -3.084361    0.074297
H      -1.162932   -1.755658   -1.633389
H      -0.698619   -0.525945   -2.818257
H       0.134943   -2.088593   -2.789895
H       2.358196   -0.654987   -2.593978
H       1.435442    0.849673   -2.473264
H       2.568309    0.400226   -1.189230
