17

O      -0.083901    1.475420    0.509692
C      -0.006872    0.139261    0.123171
C      -0.473417   -0.884481    1.115854
C      -1.287781   -0.618501   -0.134266
C      -2.615365    0.134106   -0.028229
C      -2.820084    1.052197   -1.247327
O      -1.995946    1.853709   -1.611774
C      -3.758942   -0.750597    0.160631
C      -4.710162   -1.477092    0.266959
H      -0.470597    1.950281   -0.242423
H       0.848329   -0.114508   -0.503207
H       0.060246   -1.824718    1.193835
H      -0.862751   -0.502280    2.053112
H      -1.272654   -1.378607   -0.909317
H      -2.533205    0.823459    0.823740
H      -3.789079    0.945543   -1.775584
H      -5.547729   -2.119724    0.383496
