20

C       0.001283    1.616464    0.237418
C      -0.019184    0.097188   -0.017588
C      -1.394636   -0.490599   -0.077493
C      -2.207655   -0.802214   -1.155619
C      -1.904125   -0.663012   -2.616707
C      -3.433182   -1.295727   -0.613507
O      -4.523781   -1.730835   -1.315144
C      -3.348771   -1.275204    0.756119
N      -2.097614   -0.778221    1.064327
H       1.028170    1.994185    0.281468
H      -0.527409    2.150683   -0.557580
H      -0.490850    1.863944    1.183537
H       0.499269   -0.118031   -0.957773
H       0.562863   -0.407748    0.765523
H      -2.061722   -1.604401   -3.161013
H      -2.527218    0.098994   -3.104849
H      -0.862929   -0.373778   -2.783419
H      -4.338901   -1.625863   -2.252822
H      -4.052310   -1.574229    1.513754
H      -1.740853   -0.667922    1.996517
