17

N      -0.195788    1.285746    0.212262
C      -0.116868    0.030896    0.119024
O      -1.247094   -0.711908    0.092677
C      -1.066346   -2.104010   -0.006286
O      -0.553325   -2.605381    1.212646
C      -1.170331   -3.847152    1.556816
C      -2.450048   -3.910755    0.748280
N      -3.272151   -2.704474    0.937419
C      -2.385168   -2.806929   -0.235100
H       0.738224    1.690772    0.211462
H       0.801979   -0.565195    0.051047
H      -0.362789   -2.317919   -0.828799
H      -0.513837   -4.690831    1.298372
H      -1.340658   -3.846758    2.637883
H      -2.909826   -4.866935    0.524670
H      -4.227988   -2.889992    0.643416
H      -2.792539   -2.869470   -1.237109
