16

C       0.054979    1.517893   -0.067180
C       0.046776    0.063464   -0.036236
C       0.047445   -1.139832   -0.017849
C       0.026069   -2.591332    0.026740
C       0.082482   -3.249070    1.453589
O      -1.203406   -3.857398    1.283967
C      -1.390415   -3.272456   -0.010340
C       0.977463   -3.172647   -0.921146
N       1.722031   -3.653563   -1.662506
H       0.907273    1.892104   -0.643971
H      -0.858612    1.908337   -0.527869
H       0.124945    1.934465    0.943210
H       0.881909   -3.984072    1.589576
H       0.099965   -2.513290    2.263815
H      -2.212338   -2.549964   -0.034408
H      -1.519440   -4.022213   -0.797119
