18

C       0.023064    1.567888    0.089251
C      -0.054257    0.036991   -0.046801
C       0.680520   -0.498962   -1.241148
C       0.137282   -0.929916   -2.410793
O       1.099076   -1.336600   -3.281256
C       2.288947   -1.161749   -2.646503
C       2.111041   -0.653850   -1.398427
C       3.175920   -0.340623   -0.393188
H       1.058393    1.909044    0.186362
H      -0.405004    2.057328   -0.790894
H      -0.526462    1.909444    0.972369
H       0.342226   -0.424698    0.866707
H      -1.105990   -0.265227   -0.107037
H      -0.878907   -1.013213   -2.761602
H       3.165880   -1.447483   -3.204935
H       3.230615    0.731936   -0.173491
H       2.993683   -0.852315    0.559073
H       4.159956   -0.653468   -0.753606
