16

C      -0.048182    1.494938   -0.236393
C       0.032152   -0.002318   -0.058912
O       1.062432   -0.644026   -0.049585
N      -1.178759   -0.657146    0.102173
C      -1.410135   -2.095532    0.292999
C      -2.932936   -1.775765    0.355450
C      -2.535085   -0.308173    0.149911
N      -3.068396    0.832179    0.046220
H       0.963552    1.883539   -0.351026
H      -0.657671    1.746712   -1.108687
H      -0.542899    1.958099    0.621790
H      -1.084062   -2.701175   -0.555475
H      -0.966328   -2.485693    1.211607
H      -3.533811   -2.196695   -0.452770
H      -3.416210   -1.981360    1.312337
H      -4.082061    0.764004    0.121977
