23

C      -0.104774    1.536807    0.020312
C       0.077001    0.019579    0.023556
C       1.026250   -0.532174   -1.090262
C       2.004480   -1.330581   -0.206447
O       2.993690   -2.090470   -0.830421
C       2.299605   -0.320592    0.945890
C       0.794587   -0.578618    1.271134
C       0.204673   -0.295746    2.633481
C       1.053029   -2.039756    0.781433
H       0.848006    2.062095    0.147780
H      -0.539520    1.871724   -0.927632
H      -0.775086    1.862728    0.822591
H      -0.913567   -0.443455   -0.066098
H       0.517869   -1.171627   -1.817910
H       1.533087    0.271267   -1.639101
H       3.448278   -1.529950   -1.468395
H       2.965670   -0.747755    1.699284
H       2.619391    0.693708    0.688146
H       0.216411    0.775193    2.863829
H      -0.836978   -0.634829    2.690356
H       0.764743   -0.809145    3.421845
H       0.211417   -2.606786    0.370831
H       1.596022   -2.638147    1.516887
