22

C       0.105504    1.317945    0.444886
O      -0.000453   -0.080732    0.344159
C      -1.237618   -0.497739   -0.196317
C      -1.237164   -2.002811   -0.245252
N      -1.817187   -2.719407    0.901695
C      -2.458967   -2.832819   -0.421453
C      -3.861027   -2.283915   -0.559939
C      -4.900683   -3.238598    0.017125
O      -6.182603   -2.667115   -0.196586
H       1.090395    1.543215    0.861484
H       0.015213    1.808317   -0.538277
H      -0.665794    1.740955    1.108146
H      -2.072207   -0.137062    0.422746
H      -1.367900   -0.083522   -1.212276
H      -0.319516   -2.403653   -0.673351
H      -1.273674   -3.550533    1.116057
H      -2.300592   -3.767894   -0.960514
H      -3.951652   -1.323317   -0.045765
H      -4.090075   -2.110464   -1.618597
H      -4.816887   -4.222791   -0.474754
H      -4.696605   -3.387254    1.088126
H      -6.837128   -3.233344    0.222127
