18

O      -0.127324    1.497403   -0.311089
C       0.076189    0.122952    0.030879
C      -1.237325   -0.687739    0.210029
C      -1.376304   -1.595622   -1.036529
C       0.002043   -1.527062   -1.653565
N       0.383264   -2.316268   -2.741059
C      -0.372757   -3.230012   -3.433051
O      -1.529334   -3.511374   -3.223303
C       0.799015   -0.632065   -1.052068
H      -0.465956    1.516937   -1.213292
H       0.641710    0.173280    0.966945
H      -1.167708   -1.305042    1.110414
H      -2.082628   -0.009199    0.344972
H      -1.656971   -2.620392   -0.785158
H      -2.134845   -1.252239   -1.747991
H       1.332848   -2.199230   -3.064463
H       0.225931   -3.697100   -4.239701
H       1.817925   -0.400169   -1.342740
