16

O      -0.249556    1.380430    0.149197
C      -0.137277    0.000820    0.042856
C      -1.405102   -0.801327   -0.047119
C      -2.750491   -0.096635   -0.003101
C      -3.354949   -0.166862    1.327124
N      -3.831354   -0.238869    2.377217
C      -0.510855   -0.663658   -1.282172
C      -0.879412    0.183806   -2.374942
C      -1.152897    0.934466   -3.275853
H       0.040806    1.777960   -0.680944
H       0.701460   -0.426879    0.588345
H      -1.388915   -1.783592    0.413308
H      -2.623133    0.954212   -0.276099
H      -3.443984   -0.541205   -0.725472
H       0.053076   -1.550412   -1.555299
H      -1.411414    1.571485   -4.085675
