17

O      -0.552018    0.714398    0.450650
C       0.513469    0.793406   -0.105563
C       1.459501    1.967699    0.022016
C       1.381655    2.730037    1.353111
C       1.438647    4.178942    0.931803
C       1.418639    4.340962   -0.391492
C       1.393029    3.033655   -1.130146
C       2.766594    2.448160   -1.539450
O       2.798081    1.594552   -0.374461
H       0.888863   -0.003297   -0.785987
H       0.451716    2.488346    1.881467
H       2.217461    2.437847    1.999195
H       1.475577    4.987157    1.654086
H       1.432026    5.294481   -0.907874
H       0.600236    2.951170   -1.877755
H       2.759742    1.863795   -2.468264
H       3.606060    3.151511   -1.556935
