18

C      -0.037623    1.557298   -0.038891
C      -0.001718    0.034802   -0.011625
C      -1.382062   -0.576678    0.222399
C       0.738746   -0.647509   -1.178435
O       2.107961   -0.215140   -1.142526
C       1.706143   -1.300237   -0.284460
C       1.096662   -0.623203    0.950631
O       1.946154    0.215903    1.680294
H       0.931390    1.970964   -0.328542
H      -0.784843    1.916951   -0.755251
H      -0.294965    1.955085    0.947866
H      -2.084700   -0.281385   -0.565132
H      -1.340801   -1.671793    0.237513
H      -1.794767   -0.243642    1.180691
H       0.351814   -0.973427   -2.138079
H       2.256708   -2.229480   -0.378480
H       0.641184   -1.320079    1.658992
H       2.478196    0.690875    1.029265
