16

N       0.069200    1.349000    0.331840
C      -0.007730   -0.029294    0.058245
C      -1.071387   -0.898081   -0.063263
C      -0.512734   -2.190651   -0.261133
O      -1.270828   -3.316954   -0.473530
C      -0.927870   -4.439704    0.202354
N      -1.462549   -5.540265   -0.102756
C       0.858205   -2.089543   -0.269666
N       1.148202   -0.753694   -0.065112
H       0.329921    1.893133   -0.485618
H      -0.820716    1.698268    0.664626
H      -2.120129   -0.649586   -0.039139
H      -0.188634   -4.248146    0.990199
H      -1.123249   -6.270552    0.520126
H       1.627791   -2.822235   -0.440568
H       2.063566   -0.371459    0.096331
