21

C      -0.021986    1.546761    0.137174
C       0.042794    0.044153    0.078509
C      -1.241748   -0.828667    0.214541
C      -0.322287   -1.923944    0.744490
C       0.740267   -0.923898    1.133173
C       0.997027   -1.841517   -0.041436
C       1.943776   -2.998990   -0.120937
O       1.540365   -4.001606   -1.049072
C       0.843982   -0.688269   -1.037375
H       0.979023    1.992206    0.132717
H      -0.566714    1.945566   -0.727392
H      -0.537898    1.889069    1.041057
H      -1.902207   -0.447253    0.999644
H      -1.824048   -1.014234   -0.696455
H      -0.591934   -2.837099    1.259749
H       1.285621   -0.758920    2.051980
H       2.958854   -2.636948   -0.353706
H       1.998026   -3.503294    0.850640
H       1.458482   -3.581503   -1.911131
H       0.328299   -0.862473   -1.991009
H       1.807873   -0.202644   -1.225608
