12

N       0.082574    1.411600    0.162610
C      -0.039478    0.045727    0.050919
C      -1.140983   -0.807336    0.028592
N      -2.502324   -0.909576    0.014969
N      -2.862737   -2.093649   -0.027516
O      -1.593254   -2.995475   -0.051512
C      -0.611619   -2.112182   -0.014817
N       0.704327   -2.166181   -0.023145
N       1.015491   -0.805132    0.020421
H       0.881559    1.822151   -0.300122
H      -0.768307    1.914757   -0.042544
H       1.988105   -0.552351    0.074066
