25

C      -0.063267    1.376783    0.003460
O      -0.077677   -0.028347   -0.022280
C       0.672906   -0.569701   -1.088758
C       0.566452   -2.095004   -1.058289
C      -0.890219   -2.545004   -1.225974
C       1.514138   -2.704423   -2.109009
C       1.637154   -4.213751   -2.045489
C       0.767949   -5.111958   -2.891622
C       2.238372   -4.974864   -3.200236
H       0.957797    1.774598    0.120917
H      -0.492306    1.808676   -0.915196
H      -0.665597    1.696815    0.857544
H       0.298012   -0.182271   -2.054104
H       1.728749   -0.258039   -1.004652
H       0.912616   -2.412085   -0.064241
H      -1.265285   -2.284339   -2.223817
H      -0.990455   -3.626389   -1.105001
H      -1.526572   -2.050814   -0.488392
H       1.181319   -2.412511   -3.115551
H       2.512484   -2.263072   -1.979383
H       1.883201   -4.595215   -1.056707
H       0.414638   -6.045024   -2.466234
H       0.063806   -4.640917   -3.569483
H       2.519290   -4.410853   -4.084029
H       2.891690   -5.813123   -2.984605
