19

O       0.314034    1.143382    0.382658
C       0.073005   -0.237565    0.261751
C      -1.405757   -0.538298   -0.052175
C      -1.770419   -2.015656   -0.337011
C      -2.823803   -2.420979    0.700930
C      -2.378994   -2.399539    2.124504
C      -3.161212   -1.214144    1.558277
C      -2.305494   -0.082470    1.105017
O      -2.299873    1.041129    1.564995
H      -0.399979    1.505697    0.928347
H       0.702272   -0.607208   -0.556027
H       0.374109   -0.788015    1.171403
H      -1.671957    0.093620   -0.907427
H      -2.177793   -2.119536   -1.345929
H      -0.892591   -2.670073   -0.281393
H      -3.600662   -3.117005    0.407437
H      -2.916617   -3.004921    2.845419
H      -1.323989   -2.274451    2.348398
H      -4.139859   -1.000182    1.968220
