23

C      -0.676401    1.664854   -0.029918
C       0.021755    0.310442    0.032055
C      -0.965324   -0.842657   -0.181337
O      -1.555182   -0.857859   -1.472371
C       1.293575    0.147052   -0.863389
C       2.041780   -0.395164    0.360666
C       2.782089   -1.700472    0.433420
C       3.515874   -0.391730    0.627196
C       0.907029    0.044683    1.295046
H       0.030151    2.481868    0.147086
H      -1.126081    1.839148   -1.015322
H      -1.469662    1.741220    0.724406
H      -0.437652   -1.797932   -0.090054
H      -1.733970   -0.816256    0.609352
H      -2.130761   -0.090755   -1.544803
H       1.179914   -0.519855   -1.722300
H       1.686780    1.106672   -1.215650
H       2.626579   -2.331437    1.303353
H       2.947175   -2.247167   -0.489892
H       4.178316   -0.055257   -0.164524
H       3.855282   -0.140456    1.627501
H       1.133226    0.961388    1.849778
H       0.528428   -0.702424    2.001664
