19

C       0.313139    1.431669    0.058320
C       0.003541   -0.056721   -0.111639
O       0.703079   -0.841025    0.856167
C      -1.478423   -0.366790    0.076656
C      -1.884281   -1.720453    0.554874
N      -2.010121   -0.551031    1.439737
C      -2.394158    0.344691   -0.896828
N      -3.650403    0.550668   -0.424507
O      -2.018296    0.663243   -2.013049
H       1.389269    1.610206   -0.050179
H      -0.201267    2.015526   -0.707645
H       0.005605    1.782979    1.048616
H       0.278324   -0.366149   -1.128497
H       1.627103   -0.576605    0.837830
H      -2.825483   -2.141094    0.214336
H      -1.089771   -2.429223    0.758750
H      -1.221495   -0.549117    2.084128
H      -3.819289    0.420813    0.561542
H      -4.296847    1.069696   -0.994411
