14

O       0.126364    1.344043    0.199877
C       0.081522    0.014034   -0.019383
C       0.083400   -0.781100   -1.145070
C       0.014602   -2.094581   -0.623892
N      -0.027327   -2.120723    0.699529
N       0.006175   -0.805064    1.059478
C       0.036385   -0.429870    2.452535
C       1.396732   -0.192664    2.962902
N       2.458279    0.005011    3.371477
H       0.206918    1.801750   -0.642726
H       0.121743   -0.463792   -2.174087
H      -0.012405   -3.023680   -1.174570
H      -0.556986    0.477018    2.601173
H      -0.424194   -1.244899    3.015340
