15

C       0.113428    1.468654   -0.001645
C      -0.037729   -0.013804   -0.033793
C      -1.165210   -0.727948   -0.115861
C      -1.129782   -2.201242   -0.129722
O      -2.133766   -2.879370   -0.195984
N       0.148372   -2.778234   -0.054913
C       1.173175   -2.011601    0.008843
N       2.443173   -2.490040    0.028055
O       1.182030   -0.646942    0.032141
H       0.726169    1.812423   -0.842113
H      -0.864145    1.949389   -0.055654
H       0.615306    1.786051    0.918981
H      -2.127425   -0.236042   -0.168713
H       2.536332   -3.477168    0.199319
H       3.181983   -1.881059    0.336458
