20

C       0.119515    1.326387    0.210841
O       0.004981    0.004641   -0.269700
C      -1.298932   -0.514640   -0.156884
C      -1.341617   -2.007574   -0.562491
C      -0.701140   -2.286468    0.849271
C      -1.656687   -1.119720    1.244893
N      -2.977832   -1.814597    1.114826
C      -3.840967   -1.395671   -0.008573
C      -2.784324   -2.414917   -0.243481
H       1.149208    1.645242    0.033163
H      -0.560391    2.010217   -0.321158
H      -0.093352    1.399008    1.287278
H      -1.997436    0.185288   -0.626741
H      -0.896867   -2.353407   -1.494768
H      -0.909526   -3.252826    1.312604
H       0.354498   -2.028627    0.900345
H      -1.566747   -0.559632    2.175107
H      -4.861386   -1.753219    0.103661
H      -3.780546   -0.398816   -0.427033
H      -3.057489   -3.460267   -0.365459
