18

C       0.022500    1.449641    0.336782
N      -0.056226    0.002435    0.482769
C      -1.038781   -0.605961    0.010228
O      -2.156733   -0.134740   -0.670293
C      -2.762979   -1.468372   -0.692599
C      -2.890028   -2.046535   -2.105868
C      -1.601032   -2.818371   -2.281378
C      -0.854163   -2.843330   -1.176820
C      -1.478520   -2.060230   -0.049982
H       0.882485    1.700915   -0.294516
H      -0.874665    1.905262   -0.098424
H       0.206029    1.897951    1.319024
H      -3.683590   -1.465973   -0.106956
H      -3.772006   -2.692490   -2.203759
H      -3.007352   -1.237642   -2.836989
H      -1.333370   -3.290519   -3.220160
H       0.110267   -3.325966   -1.076396
H      -1.533237   -2.580117    0.908188
