17

C       0.134052    1.341148    0.595207
C       0.000586   -0.056956    0.040331
C      -1.302561   -0.586728   -0.375614
O      -0.348038   -0.149173   -1.344293
N       1.401876    1.952947    0.242317
C       1.865479    2.243983   -1.000521
C       3.115333    2.803023   -0.836316
C       3.318836    2.804443    0.558812
N       2.280572    2.288417    1.211799
H      -0.692559    1.957685    0.224837
H       0.100271    1.327408    1.686761
H       0.776046   -0.756297    0.353101
H      -1.481225   -1.659937   -0.344916
H      -2.192244    0.034765   -0.281317
H       1.278735    2.020235   -1.877039
H       3.777847    3.156444   -1.609562
H       4.173945    3.160449    1.114624
