19

C      -0.085717    1.565144   -0.084158
C       0.061579    0.060485   -0.001152
O       1.170439   -0.453285   -0.801573
C       1.614458   -1.331675    0.262749
C       2.869002   -0.814757    1.007855
C       1.922436   -0.069352    1.980329
O       1.535155   -0.860679    3.133275
C       0.226535   -1.151605    2.575425
C       0.662178   -0.591492    1.235207
H       0.832054    2.067382    0.234127
H      -0.304265    1.867873   -1.112787
H      -0.911048    1.903228    0.551854
H      -0.874257   -0.430130   -0.312433
H       1.534140   -2.388436   -0.010418
H       3.472638   -1.579860    1.502427
H       3.504932   -0.178490    0.387420
H       2.120578    0.972907    2.247255
H      -0.022412   -2.218331    2.623758
H      -0.559660   -0.575484    3.084015
