18

N       0.032026    1.375627   -0.647339
C       0.033636    0.040698   -0.143857
C       0.590129   -1.019336   -1.141385
C      -0.806925   -1.703543   -1.233955
C      -1.286406   -0.844259   -0.042782
N      -0.773700   -1.363475    1.258153
C       0.260505   -0.299487    1.350254
C      -2.617566   -0.285374   -0.025311
N      -3.678586    0.176243    0.013748
H      -0.272957    2.048870    0.047880
H       0.953543    1.649694   -0.971944
H       0.942110   -0.585772   -2.079137
H       1.376219   -1.646718   -0.717259
H      -1.330064   -1.449514   -2.158258
H      -0.851309   -2.779970   -1.063824
H      -1.460802   -1.360241    2.002601
H       1.251756   -0.659546    1.649631
H      -0.021341    0.545854    1.994933
