15

C       0.114003    1.491083    0.014416
C      -0.058923    0.014623   -0.032215
C      -1.141208   -0.814888    0.024379
C      -2.584981   -0.440005    0.161025
C      -0.614601   -2.152047   -0.075259
C       0.730084   -2.029401   -0.183125
O       1.089566   -0.718801   -0.159084
H       0.740039    1.795726    0.861131
H       0.592196    1.868598   -0.896888
H      -0.855020    1.984067    0.116331
H      -3.175651   -0.800485   -0.689240
H      -3.028600   -0.873324    1.065018
H      -2.717807    0.643672    0.217123
H      -1.178676   -3.072412   -0.065778
H       1.538332   -2.735408   -0.280425
