19

O       0.017621    1.342733    0.272955
C       0.053949   -0.046069   -0.016066
C      -1.370081   -0.575993    0.087478
C      -1.447588   -2.084345   -0.175373
O      -0.729009   -2.858684    0.779015
C      -1.640948   -3.325518    1.779606
C      -2.951076   -3.600800    1.039585
C      -2.896502   -2.587996   -0.104643
O      -3.800301   -2.228457   -0.810480
H       0.920244    1.674024    0.267119
H       0.443712   -0.234927   -1.030540
H       0.696679   -0.591301    0.690009
H      -1.762325   -0.344960    1.085022
H      -2.013565   -0.065857   -0.637290
H      -1.032134   -2.308480   -1.166455
H      -1.193558   -4.208848    2.239862
H      -1.784446   -2.565223    2.561923
H      -2.957908   -4.606416    0.602697
H      -3.859182   -3.481100    1.632946
