19

C       0.018677    1.460484    0.082052
C       0.014054   -0.033821   -0.034227
C       0.585888   -0.951625   -1.152954
C       0.057423   -1.882106   -0.023424
C       0.132069   -3.373098    0.110282
N       0.635930   -0.937744    1.022892
C      -1.226391   -0.987315    0.015872
C      -2.043158   -0.999353    1.216333
N      -2.745915   -1.011037    2.134398
H       1.043224    1.846789    0.065624
H      -0.528635    1.916594   -0.748892
H      -0.450748    1.769330    1.020619
H       0.082431   -0.969137   -2.126079
H       1.673708   -0.926738   -1.264421
H       1.173594   -3.711139    0.098050
H      -0.322596   -3.692679    1.052518
H      -0.393065   -3.864013   -0.715122
H       1.656353   -0.914511    0.921436
H      -1.848827   -1.007186   -0.880852
