15

N       0.027919    1.349867   -0.104984
C      -0.047098    0.000942   -0.027883
N      -1.111660   -0.710893    0.051960
C      -0.739559   -2.147911    0.047878
C       0.812345   -2.239123   -0.007770
C       1.238835   -0.784514   -0.070717
O       2.344361   -0.306623   -0.128158
C      -1.308570   -2.837339    1.204648
C      -1.757634   -3.418076    2.155651
H       0.939964    1.758608    0.022055
H      -0.782221    1.903133    0.117587
H      -1.173825   -2.593088   -0.856836
H       1.236977   -2.716147    0.878747
H       1.179735   -2.782625   -0.882483
H      -2.165151   -3.926961    2.993934
