17

C      -0.070877    1.551304   -0.081587
C       0.029142    0.033665    0.049560
C       0.756300   -0.465356    1.266191
N       1.240844    0.400774    2.107658
N       1.886999   -0.077179    3.188635
C       2.066600   -1.392553    3.459191
C       1.584177   -2.342974    2.619197
C       0.871336   -1.942249    1.423567
O       0.392662   -2.710352    0.594695
H       0.919078    2.013947   -0.126232
H      -0.614170    1.815494   -0.993332
H      -0.596526    1.991569    0.770410
H      -0.965689   -0.430575    0.051904
H       0.520161   -0.408624   -0.827070
H       2.239746    0.637535    3.803271
H       2.609902   -1.609080    4.372710
H       1.722460   -3.396242    2.826503
