23

C       0.082087    1.358847    0.027561
O       0.139960   -0.048566    0.026530
C       0.644689   -0.575255   -1.178930
C       0.584642   -2.105377   -1.141954
C      -0.854204   -2.591887   -0.960833
C       1.205098   -2.678197   -2.436114
O       1.294632   -4.084772   -2.372633
O       1.301576   -2.677241   -0.031486
C       2.533211   -2.086771    0.339688
H       1.076883    1.809539   -0.116227
H      -0.583317    1.739314   -0.763305
H      -0.309332    1.668803    0.999241
H       0.046682   -0.227673   -2.038376
H       1.676274   -0.224735   -1.347477
H      -1.486899   -2.229647   -1.777077
H      -0.877416   -3.683139   -0.967996
H      -1.253273   -2.224811   -0.014464
H       0.581096   -2.425508   -3.300162
H       2.196954   -2.224620   -2.603977
H       1.567433   -4.277402   -1.465072
H       2.962529   -2.734295    1.108637
H       3.247865   -2.023519   -0.493318
H       2.386036   -1.086642    0.763689
