23

C      -0.205066    1.657066   -0.137289
C       0.029290    0.155877   -0.031942
C       1.106304   -0.600605   -0.870652
C       2.410314    0.125674   -0.480216
C       2.341321   -0.276202    1.008789
C       2.499103   -1.823917    0.891922
C       2.552954   -2.606219    2.200092
C       1.099142   -1.726251    0.258876
C       0.764366   -0.489427    1.153554
H       0.693816    2.241336    0.077808
H      -0.554494    1.935211   -1.138479
H      -0.973706    1.972256    0.577384
H      -0.928819   -0.366726   -0.150258
H       0.941251   -0.837111   -1.922345
H       3.300884   -0.277069   -0.971565
H       2.376862    1.199945   -0.673189
H       2.916589    0.300332    1.734000
H       3.316911   -2.152925    0.237949
H       1.752948   -2.317606    2.888892
H       2.456123   -3.682031    2.015097
H       3.507980   -2.444028    2.712034
H       0.424455   -2.573238    0.128566
H       0.344936   -0.554322    2.156466
