21

C       0.272571    1.539866    0.148841
C      -0.193613    0.104128   -0.124689
C       0.564409   -0.523804   -1.278525
C       1.867355   -1.245378   -1.079201
C       0.637074   -2.032261   -1.513672
C       0.009481   -3.023122   -0.536086
O       0.651224   -4.283353   -0.563787
C       0.582009   -2.495836   -2.875859
C       0.515139   -2.939896   -3.993529
H       1.337296    1.566006    0.402661
H       0.125509    2.176610   -0.730214
H      -0.284581    1.983403    0.979565
H      -0.067358   -0.493675    0.784237
H      -1.268114    0.105236   -0.347813
H       0.495212    0.048315   -2.200610
H       2.664483   -1.107768   -1.799970
H       2.201665   -1.417868   -0.060733
H       0.108503   -2.657850    0.488748
H      -1.065363   -3.117501   -0.756407
H       0.646723   -4.581801   -1.481145
H       0.459500   -3.305086   -4.989063
