20

C      -0.048542    1.526504    0.011001
C       1.263482    0.773339   -0.006397
C      -0.036628    0.026975    0.002361
C      -0.481410   -0.965277    1.068874
C      -2.003747   -0.986737    1.318906
C      -2.132709   -1.796061    0.012949
C      -2.029787   -0.971928   -1.286040
C      -0.502754   -0.953137   -1.066260
N      -0.617774   -2.060904   -0.003701
H      -0.337438    2.031103    0.927842
H      -0.355659    2.041455   -0.894087
H       1.843451    0.776988   -0.924097
H       1.861684    0.766631    0.899506
H       0.186532   -1.138602    1.916672
H      -2.257948   -1.594980    2.191087
H      -2.525914   -0.028042    1.390228
H      -2.807138   -2.654723    0.014809
H      -2.301441   -1.570245   -2.159823
H      -2.553168   -0.012543   -1.336006
H       0.148088   -1.116735   -1.929157
