16

C      -0.053782    1.501909   -0.059528
C       0.015462    0.012064    0.083677
O      -1.218818   -0.645590   -0.183380
C      -1.249515   -1.719367    0.648686
N      -0.284445   -1.894058    1.459227
C       0.648298   -0.837301    1.168832
C       1.252377   -0.811421   -0.250759
C       1.211686   -1.936888   -1.130031
C       1.170661   -2.878047   -1.877663
H       0.905364    1.950924    0.211685
H      -0.282596    1.785176   -1.091787
H      -0.827700    1.917513    0.592969
H      -2.126980   -2.345640    0.551736
H       1.248858   -0.463164    1.989185
H       2.153434   -0.206541   -0.309353
H       1.141324   -3.711725   -2.534368
