15

C      -0.200569    0.982089    0.971726
C       0.263774    0.306674   -0.316138
N       1.109707   -0.843472   -0.004707
C       2.007321   -1.177525   -0.797409
O       2.373509   -0.635903   -1.997629
N       3.494487   -1.370856   -2.511790
C       3.680837   -2.267679   -1.614168
O       4.599561   -3.215371   -1.606400
O       2.857653   -2.252497   -0.559311
H      -0.732867    0.269509    1.608005
H       0.653022    1.366856    1.537696
H      -0.869699    1.818393    0.746491
H      -0.609323   -0.048862   -0.879638
H       0.781005    1.030599   -0.960170
H       5.127322   -3.129577   -2.412729
