19

C      -0.122219    1.332249   -0.039117
O       0.181681   -0.043524    0.058799
C       0.707660   -0.593304   -1.114529
C       0.944120   -2.107218   -0.969246
C      -0.513250   -2.580612   -0.803877
O      -1.247654   -1.713957   -1.700067
C      -0.282012   -0.861584   -2.273492
O       0.524783   -1.558271   -3.206681
C       1.364089   -2.430989   -2.411319
H       0.759309    1.919641   -0.338766
H      -0.931598    1.527635   -0.756213
H      -0.444966    1.660402    0.951402
H       1.592963   -0.040889   -1.460563
H       1.634432   -2.428583   -0.190725
H      -0.652149   -3.623728   -1.109531
H      -0.883889   -2.445896    0.216496
H      -0.782455   -0.039886   -2.782264
H       2.418507   -2.202994   -2.609802
H       1.171944   -3.474686   -2.685643
