15

C      -0.059619   -1.158349    0.120608
C      -0.045428    0.043200    0.075916
C      -0.006290    1.469510   -0.012741
O      -0.663231    2.287267    1.022445
C      -0.091075    3.263223    0.089984
C       1.240044    2.450901   -0.046634
C       1.692121    2.558608   -1.486551
C       0.558226    2.545632   -2.195888
C      -0.537005    2.430568   -1.158312
H      -0.076099   -2.219541    0.166626
H      -0.238734    4.322492    0.306648
H       1.941526    2.426633    0.784834
H       2.714475    2.620052   -1.831705
H       0.420462    2.593802   -3.266782
H      -1.590999    2.386215   -1.425024
