15

O      -0.137785    0.007522   -0.536530
C      -0.123526    1.176275   -0.233507
C      -1.255215    2.199739   -0.111559
N      -0.636577    3.465205    0.294749
C       0.612910    3.221985    0.389165
N       1.010776    1.918321    0.096564
C       2.354262    1.361353    0.122648
C       3.048412    1.599863    1.384305
C       3.624940    1.818979    2.414657
H      -1.780570    2.308328   -1.066505
H      -1.995529    1.870877    0.625679
H       1.361101    3.950297    0.683498
H       2.226694    0.288147   -0.060572
H       2.947576    1.761964   -0.709741
H       4.134408    1.997713    3.329555
