17

C       0.131779    1.483931    0.005382
C       0.065763   -0.017111    0.015483
C       1.237906   -0.886051   -0.265970
C       0.659408   -0.977123    1.141031
C       1.456359   -0.478838    2.278045
O       2.315279    0.371708    2.190459
N      -0.339222   -1.968926    1.409291
C      -1.329464   -1.729939    0.627628
N      -1.201369   -0.656043   -0.235206
H       1.075171    1.809209    0.449684
H       0.081128    1.875253   -1.017281
H      -0.687292    1.922409    0.585652
H       1.113326   -1.753252   -0.906249
H       2.201865   -0.390479   -0.305577
H       1.183313   -0.941771    3.249964
H      -2.232690   -2.330369    0.599263
H      -2.006974   -0.091251   -0.460778
