14

N       1.607858   -0.315647    0.750915
C       0.789305    0.401063    0.363889
C      -0.277878    1.286751   -0.131978
O      -0.298137    2.543794    0.513054
C       0.678787    3.403766    0.123834
C       1.754077    3.346592   -0.723005
N       2.393472    4.572874   -0.730415
C       1.721570    5.336455    0.090029
N       0.656529    4.671254    0.644419
H      -0.171612    1.406897   -1.218162
H      -1.245460    0.822837    0.074088
H       2.118110    2.514208   -1.302574
H       1.940625    6.365274    0.331500
H      -0.019990    5.018495    1.303751
