21

O      -0.514916    0.402392    0.494279
C       0.230836    0.837330   -0.344911
C       1.314193    1.868688   -0.097191
C       1.237032    3.025991   -1.073368
C       1.843275    2.882761   -2.454470
C       2.449744    3.848223   -1.464014
C       2.035070    5.309077   -1.556561
C       0.494715    5.271227   -1.693946
C       0.055826    3.988916   -0.952066
H       0.166529    0.493264   -1.403758
H       1.238174    2.204555    0.942616
H       2.279151    1.355065   -0.216663
H       2.400871    1.973929   -2.656408
H       1.308922    3.265262   -3.318188
H       3.428194    3.611013   -1.058909
H       2.325937    5.824110   -0.633003
H       2.512055    5.842208   -2.386108
H       0.016610    6.168421   -1.293011
H       0.211602    5.212853   -2.749575
H      -0.880413    3.578776   -1.347360
H      -0.113970    4.199268    0.111641
