19

C       0.281869    1.545972    0.366392
C      -0.050160    0.066854    0.102525
C       0.572352   -0.456158   -1.217668
C       2.013323   -0.851638   -0.866150
C       1.988385   -1.191479    0.626730
O       2.893707   -1.655935    1.266566
C       0.601201   -0.837369    1.184941
C      -1.558223   -0.114185    0.144662
O      -2.205178   -0.755570   -0.642774
H       1.362767    1.699810    0.444486
H      -0.090206    2.184961   -0.440905
H      -0.166013    1.889045    1.305463
H      -0.003292   -1.323773   -1.551731
H       0.514232    0.290856   -2.013225
H       2.407706   -1.692177   -1.442883
H       2.717924   -0.022232   -1.003751
H       0.676653   -0.387228    2.177345
H       0.051858   -1.782324    1.293629
H      -2.051672    0.392523    1.007173
