13

C       0.022122   -1.168513   -0.013089
C      -0.012980    0.032303    0.016191
C      -0.034959    1.473086    0.035951
C       0.534830    2.173800    1.248458
N       1.263708    2.212728   -0.008414
C      -1.111709    2.092268   -0.692120
C      -2.031097    2.603792   -1.285030
C      -3.067111    3.185690   -1.956163
N      -3.950494    3.680873   -2.525524
H       0.044160   -2.230494   -0.039398
H       0.087429    3.115452    1.550510
H       0.878355    1.531630    2.053960
H       2.015501    1.526333   -0.009026
