16

C       0.050981    1.564671    0.013605
N       1.234732    0.701259   -0.077559
C      -0.086935    0.074471    0.058200
C      -0.334961   -0.667430    1.310310
C       0.464961   -0.885213    2.410818
C      -0.288904   -1.645091    3.348229
C      -1.527262   -1.871638    2.795790
N      -1.544969   -1.275426    1.558141
H      -0.028434    2.126130    0.939659
H      -0.291344    2.087340   -0.876640
H       1.554913    0.637653   -1.039438
H      -0.517886   -0.376695   -0.836551
H       1.481024   -0.537897    2.508215
H       0.044301   -1.992793    4.314113
H      -2.387387   -2.405517    3.166658
H      -2.333129   -1.262634    0.934591
