16

C       0.001612    1.514325   -0.027301
C       0.156499    0.005041    0.038365
O       0.603114   -0.567733    1.014453
N      -0.265017   -0.667571   -1.078538
C      -0.223277   -2.125299   -1.146670
C      -1.569856   -2.701659   -1.262613
C      -2.675170   -3.160411   -1.358482
C       0.649547   -2.591170   -2.232578
C       1.363781   -2.960788   -3.123939
H      -0.117796    1.894360   -1.045104
H      -0.875692    1.805387    0.558939
H       0.876990    1.974532    0.433966
H      -0.638303   -0.168542   -1.869082
H       0.212469   -2.421053   -0.182042
H      -3.649843   -3.575094   -1.437436
H       1.998833   -3.296173   -3.906498
