21

C      -0.001597    1.489965    0.046953
C      -0.020362   -0.005554   -0.013051
C       0.011939   -0.770240   -1.110702
C      -0.029672   -2.248179   -0.796155
C       0.016440   -2.280188    0.731586
O      -0.721540   -3.264807    1.394099
C       1.220059   -1.688191    1.420581
C      -0.047142   -0.851323    1.232001
C      -0.861230   -0.437062    2.433851
H       0.870500    1.854888    0.604838
H       0.025704    1.929154   -0.953958
H      -0.886325    1.881123    0.564276
H       0.073433   -0.391125   -2.125278
H      -0.958707   -2.718402   -1.146669
H       0.799108   -2.801537   -1.257584
H      -0.177246   -4.057017    1.453550
H       1.407472   -2.052246    2.426764
H       2.105156   -1.437336    0.844064
H      -0.422557    0.429059    2.941879
H      -1.885435   -0.174647    2.146024
H      -0.922091   -1.259653    3.151006
