17

C      -0.130196    1.550117    0.034562
C       0.018375    0.045441    0.023413
C       1.328861   -0.649819   -0.267993
N       2.506996    0.156608   -0.423312
C       0.740359   -0.664850    1.161922
N       1.360132    0.136366    2.199343
C       0.183889   -1.909455    1.621394
N      -0.250835   -2.920225    1.980835
H       0.755433    2.047177    0.431377
H      -0.309388    1.925156   -0.979046
H      -0.982294    1.841502    0.655504
H      -0.851008   -0.485809   -0.352743
H       1.264332   -1.585031   -0.823279
H       3.340693   -0.420151   -0.447735
H       2.478165    0.691629   -1.284751
H       1.761253   -0.479913    2.899850
H       2.137796    0.632984    1.765058
