18

C       0.016993    1.493047    0.098098
C       0.030189   -0.002819    0.032200
C       0.092933   -0.769899   -1.066620
C       0.044506   -2.250146   -0.751216
C       0.039712   -2.298446    0.777826
C       1.235935   -1.712733    1.475227
O       2.449820   -1.483155    0.831954
C       0.007351   -0.842037    1.269469
H       0.872799    1.874029    0.668651
H       0.039375    1.942188   -0.898363
H      -0.883381    1.852173    0.612338
H       0.171244   -0.391022   -2.080483
H      -0.850633   -2.722068   -1.175837
H       0.906759   -2.789667   -1.166901
H      -0.526340   -3.075675    1.278472
H       1.417506   -2.046761    2.491785
H       2.264043   -0.954607    0.044103
H      -0.563099   -0.513418    2.132632
