20

C      -0.245256    1.574090   -0.134272
C      -0.068740    0.077971    0.037938
C      -1.249361   -0.741475   -0.437653
O       1.182517   -0.352686   -0.705260
C       1.800316   -0.479890    0.499692
N       2.968043   -0.290725    0.941996
C       2.732223   -0.113384    2.407677
C       1.228555    0.344194    2.561466
C       0.604246   -0.410351    1.377636
H       0.651963    2.116631    0.173682
H      -0.444638    1.813876   -1.182765
H      -1.089714    1.926664    0.466481
H      -1.471848   -0.523488   -1.486639
H      -1.043258   -1.810866   -0.344359
H      -2.136224   -0.503454    0.159063
H       2.922499   -1.048505    2.951575
H       3.430898    0.634432    2.791727
H       0.797223    0.093143    3.533422
H       1.167072    1.429208    2.430122
H       0.198773   -1.383777    1.667629
