14

O       0.058461    1.450191   -0.074864
C       0.113222    0.062797   -0.038570
C      -1.221612   -0.722307    0.042658
O      -2.208496   -0.080534   -0.798419
C      -2.000790   -1.050260   -1.858022
C      -0.794128   -1.670638   -1.118202
C       0.451347   -0.776210   -1.317248
O       1.304547   -0.732191   -2.151336
H      -0.722362    1.670103   -0.602318
H       0.799700   -0.241453    0.764033
H      -1.617478   -1.028294    1.011639
H      -2.858655   -1.727073   -1.941359
H      -1.807179   -0.582432   -2.828550
H      -0.686314   -2.752232   -1.080341
