16

C      -0.127617    1.434056    0.212509
N      -0.055496    0.065971   -0.294001
C      -1.155189   -0.756457   -0.159446
C      -1.302039   -2.100269    0.014855
C      -2.725680   -2.350706   -0.035082
C      -3.317355   -1.136483   -0.221713
O      -2.366683   -0.157079   -0.300791
C      -3.377667   -3.598424    0.095659
C      -3.914865   -4.670284    0.209756
H       0.808371    1.942536   -0.028595
H      -0.941052    1.963336   -0.286940
H      -0.294281    1.492439    1.298445
H       0.796359   -0.413439   -0.041488
H      -0.524401   -2.831164    0.160988
H      -4.340589   -0.814528   -0.300948
H      -4.395329   -5.611501    0.308861
