17

O      -0.093531    1.422795    0.023960
C      -0.016117    0.036149    0.015566
C       0.336648   -0.836131    1.280556
C      -0.359548   -1.929308    0.405854
C      -1.333115   -0.794599   -0.060581
C       0.608656   -1.981094   -0.801337
C       0.827369   -0.678023   -1.052439
C       1.088807   -3.144970   -1.424760
C       1.476301   -4.170122   -1.928634
H       0.799541    1.780594    0.071455
H       1.391263   -0.980981    1.526309
H      -0.244468   -0.549713    2.161884
H      -0.712068   -2.871623    0.816888
H      -2.058102   -0.505182    0.705471
H      -1.806999   -0.899470   -1.038376
H       1.429740   -0.209111   -1.817738
H       1.825445   -5.063491   -2.383498
