17

C      -0.102588    1.524530    0.041370
C       0.065584   -0.012468   -0.002585
C       0.780888   -0.448262   -1.248420
C       1.989524   -0.994686   -1.223854
C       2.733066   -1.241639    0.046270
O       2.073667   -0.801774    1.235205
C       0.744102   -0.496336    1.266169
N       0.099107   -0.521693    2.355778
H       0.872236    2.019988    0.084464
H      -0.621673    1.876035   -0.856138
H      -0.682075    1.811151    0.921206
H      -0.939852   -0.448091    0.010666
H       0.270213   -0.274006   -2.191882
H       2.499802   -1.296013   -2.134310
H       2.945030   -2.315565    0.161398
H       3.705996   -0.732845    0.028333
H       0.705429   -0.840201    3.114447
