23

C       0.485920    1.420756   -0.058749
C       0.091656   -0.023614   -0.095841
C      -0.028599   -0.797033   -1.179696
C      -0.475434   -2.205111   -0.871397
C      -0.435005   -2.263164    0.673237
C      -1.584036   -3.040323    1.299203
C       0.966175   -2.603004    1.281874
C       0.987536   -1.235733    2.017468
C      -0.236832   -0.784550    1.166135
H       1.372028    1.577591    0.569330
H       0.706909    1.806620   -1.057826
H      -0.312500    2.036923    0.375039
H       0.151887   -0.454922   -2.194686
H      -1.484098   -2.398626   -1.266372
H       0.176711   -2.966027   -1.321579
H      -1.561865   -4.092561    0.990918
H      -1.535823   -3.017071    2.393870
H      -2.553320   -2.625510    0.999195
H       1.004100   -3.493669    1.915314
H       1.745059   -2.690235    0.519831
H       0.748083   -1.321117    3.081027
H       1.898714   -0.639269    1.919250
H      -1.052507   -0.316001    1.731018
