16

O      -0.068620    1.431637    0.126911
C       0.047975    0.029826   -0.012497
C       0.755989   -0.649215    1.146885
C       0.038348   -1.626592    1.699693
C      -1.308910   -1.793287    1.046428
C      -2.462223   -1.003365    1.710880
O      -2.293714    0.092170    0.777459
C      -1.338178   -0.665489   -0.012031
H      -0.830888    1.563122    0.709843
H       0.579679   -0.138960   -0.957483
H       1.740249   -0.327611    1.468696
H       0.348157   -2.231902    2.545385
H      -1.542415   -2.813844    0.737180
H      -3.453236   -1.460840    1.603296
H      -2.312939   -0.688350    2.749166
H      -1.733191   -0.883461   -1.008085
