19

C      -0.243692    1.495747    0.262173
C      -0.027298    0.015967    0.056654
C      -1.270048   -0.919458    0.017832
C      -0.636641   -1.832004    1.109403
C       0.643182   -0.968315    1.106169
O       1.627886   -1.374187    0.140894
C       1.119254   -0.459714   -0.858716
C       1.233414   -0.511006    2.403134
O       0.578838   -0.294903    3.394509
H       0.701594    2.029493    0.406084
H      -0.746436    1.932901   -0.609259
H      -0.873996    1.683395    1.137286
H      -2.190686   -0.427319    0.339646
H      -1.452934   -1.390552   -0.951571
H      -1.149343   -1.776694    2.071874
H      -0.460268   -2.875473    0.842579
H       0.825232   -0.974273   -1.781837
H       1.859737    0.314416   -1.099346
H       2.334257   -0.352618    2.371899
