19

C      -0.068505   -1.110521   -0.260511
C      -0.051650    0.053097    0.037957
C      -0.003189    1.462499    0.412073
C       1.403800    2.034741    0.370184
O       1.884586    2.463861   -0.910436
C       1.664958    3.448506    0.085485
C       0.680516    4.618914   -0.021034
C       1.632389    5.418328    0.920136
C       2.747797    4.358098    0.671108
H      -0.091002   -2.136208   -0.533703
H      -0.642614    2.050576   -0.255514
H      -0.404183    1.586223    1.427718
H       2.137307    1.481015    0.958313
H       0.658263    5.024553   -1.036709
H      -0.347066    4.457452    0.314535
H       1.859026    6.444514    0.627616
H       1.284885    5.418035    1.955671
H       3.307156    3.989945    1.534429
H       3.456234    4.672217   -0.101169
