11

N      -0.075744    1.263560   -0.058412
C      -0.045629    0.013244    0.030849
O       1.106446   -0.750479    0.197070
C       0.849594   -2.102191    0.001640
O       1.717389   -2.909564   -0.088722
C      -0.646972   -2.272995   -0.080063
O      -1.271438   -1.764222    1.103928
C      -1.210995   -0.915967   -0.048996
H       0.859598    1.667928    0.013979
H      -1.085643   -3.143614   -0.552006
H      -2.147137   -0.608933   -0.497745
