23

C      -0.122762    1.551976   -0.055644
C       0.104468    0.055413    0.001410
C       0.125168   -0.608325   -1.368775
C       0.355395   -2.120444   -1.306185
C       1.610889   -2.426728   -0.486303
C       1.464859   -1.962412    0.969813
C       0.772319   -0.610234    1.149925
C       1.250719    0.155391    2.366960
O      -0.662268   -0.656642    0.988525
H       0.695712    2.046336   -0.590549
H      -1.049866    1.765395   -0.599507
H      -0.207749    1.997413    0.935593
H      -0.822011   -0.383003   -1.875760
H       0.915988   -0.136054   -1.968063
H      -0.515527   -2.601701   -0.848004
H       0.451000   -2.520821   -2.321096
H       1.841702   -3.497314   -0.508712
H       2.466882   -1.916049   -0.948402
H       0.876149   -2.692673    1.540005
H       2.451002   -1.924658    1.446161
H       2.283246    0.496096    2.231351
H       0.621594    1.018925    2.583878
H       1.232156   -0.499850    3.245519
