21

C      -0.108501    1.516549    0.071773
C       0.175326    0.051473    0.000958
C       0.699756   -0.759082   -1.204409
C       1.306395   -1.753490   -0.185142
C       1.413861   -3.244712   -0.261503
C       2.663230   -2.388895   -0.259318
C       0.760305   -0.911855    0.960529
C       1.270274   -0.785008    2.358337
O      -0.668218   -0.843072    0.748149
H       0.732939    2.095738   -0.322272
H      -0.995779    1.767861   -0.520931
H      -0.295690    1.825122    1.103874
H      -0.077729   -1.144045   -1.870101
H       1.458979   -0.229175   -1.787654
H       1.187643   -3.824932    0.627367
H       1.128022   -3.726908   -1.190659
H       3.223110   -2.292669   -1.184325
H       3.281462   -2.393647    0.633239
H       2.345946   -0.582042    2.364897
H       0.756793    0.026275    2.880841
H       1.097063   -1.708829    2.922850
