19

C      -0.037392    1.467937    0.073109
C      -0.017457   -0.018743   -0.000726
C      -0.012154   -0.876534   -1.030566
C       0.071534   -2.232869   -0.339866
C      -0.063978   -3.528559   -1.082507
O      -0.871760   -2.053428    0.796325
C       0.060332   -0.986939    1.180569
C       1.215746   -1.945633    0.720146
O       1.513712   -2.997916    1.577768
H       0.840645    1.853639    0.606445
H      -0.049469    1.916632   -0.923973
H      -0.917808    1.828327    0.619822
H      -0.016460   -0.690351   -2.095538
H       0.605806   -3.542605   -1.948075
H       0.195464   -4.371440   -0.435708
H      -1.090103   -3.662117   -1.438209
H      -0.053544   -0.631557    2.204894
H       2.152720   -1.509872    0.367377
H       0.658581   -3.334423    1.881863
