23

C       0.016069    1.585448    0.065450
C       0.001012    0.050701    0.035968
C      -1.395765   -0.526069    0.059715
C      -2.337754   -0.422442    1.273780
C      -3.128114   -1.539631    0.547429
C      -3.673155   -0.768680   -0.674604
C      -2.282060   -0.483883   -1.277750
C      -1.792838   -1.924222   -1.588774
C      -1.749413   -2.051830   -0.060825
H       1.040161    1.970996    0.051218
H      -0.510573    2.004573   -0.798449
H      -0.471851    1.968611    0.967826
H       0.534446   -0.300480   -0.856973
H       0.563301   -0.333680    0.897589
H      -1.831448   -0.780885    2.176513
H      -2.859850    0.515562    1.493855
H      -3.804287   -2.204909    1.083711
H      -4.301306   -1.365242   -1.343167
H      -4.230432    0.126592   -0.383115
H      -2.187082    0.322617   -2.005316
H      -2.455413   -2.572153   -2.172282
H      -0.787140   -1.952532   -2.017197
H      -1.213114   -2.832364    0.479621
