21

C      -0.277427    1.580494   -0.021040
C       0.032261    0.090873    0.013611
C       1.132266   -0.541408   -0.907283
C       2.356651    0.373802   -1.045525
C       3.029892    0.259932    0.311844
C       2.173782    0.041220    1.555379
C       2.873801   -1.126559    0.860211
C       1.502551   -1.540153    0.272292
C       0.776742   -0.534143    1.212903
H       0.600866    2.185551    0.223766
H      -0.638669    1.895700   -1.006817
H      -1.057185    1.827053    0.708690
H      -0.896260   -0.475368   -0.132629
H       0.790644   -0.957485   -1.856855
H       3.037593    0.004075   -1.822469
H       2.080672    1.397907   -1.317025
H       3.967592    0.777253    0.489284
H       2.435683    0.528984    2.487268
H       3.678872   -1.767606    1.195551
H       1.212055   -2.585014    0.191907
H       0.218800   -0.867801    2.090437
