19

O       0.068332    1.430646   -0.105661
C       0.042981    0.022876    0.036721
C       0.525104   -0.498530    1.398479
O      -0.064091   -1.781036    1.530279
C      -1.343037   -1.789602    0.875580
C      -2.513049   -1.685381    1.885838
C      -2.985512   -0.260456    1.745164
C      -2.398989    0.372988    0.730722
C      -1.405876   -0.502011    0.002760
H       0.987037    1.713187   -0.144295
H       0.622502   -0.461151   -0.763435
H       1.611419   -0.618558    1.466714
H       0.196062    0.195217    2.187475
H      -1.388628   -2.715993    0.296054
H      -3.314635   -2.398543    1.650463
H      -2.158224   -1.932641    2.892771
H      -3.738167    0.171593    2.396328
H      -2.582593    1.397007    0.431142
H      -1.722576   -0.696977   -1.027347
