12

C      -0.006685    1.541374   -0.106788
C      -0.025732    0.015550    0.084153
C      -1.408687   -0.539028    0.098763
N      -1.989247   -1.108465    1.116265
O      -3.225389   -1.438227    0.671121
N      -3.345809   -1.036172   -0.655836
N      -2.262626   -0.499618   -0.995320
H       1.024332    1.902266   -0.145538
H      -0.504731    1.824019   -1.037998
H      -0.515228    2.045885    0.719674
H       0.527100   -0.465143   -0.730627
H       0.461657   -0.265312    1.021148
