19

C       0.612689    1.372272    0.055412
C      -0.115291    0.038648   -0.051826
C       0.284455   -0.806250   -1.286486
C       1.284096   -1.784364   -0.703551
C       1.729956   -3.070895   -1.351464
C       2.716654   -1.958122   -1.180591
C       1.066328   -1.781311    0.777663
O       1.542846   -2.516329    1.597879
O       0.211950   -0.775306    1.100651
H       1.695976    1.231803   -0.019186
H       0.295057    2.041463   -0.750708
H       0.392756    1.852414    1.012397
H      -1.195898    0.198993   -0.008697
H      -0.587712   -1.331776   -1.688567
H       0.695056   -0.180957   -2.083287
H       1.819526   -3.929858   -0.695770
H       1.350855   -3.277886   -2.346472
H       3.014625   -1.389039   -2.054738
H       3.476243   -2.066794   -0.414714
