21

C       0.003319    1.478833    0.109803
C       0.012148   -0.005880    0.006400
C      -0.019925   -0.847629   -1.035053
C      -0.077472   -0.625452   -2.505953
C       0.023632   -2.228380   -0.319494
C       0.197438   -3.498776   -1.103025
C      -1.042551   -2.015285    0.803309
C       0.069088   -1.001458    1.186261
O       1.049720   -1.979716    0.711301
H       0.904012    1.849780    0.616062
H      -0.046064    1.952982   -0.874886
H      -0.853265    1.837646    0.695470
H      -0.088556    0.440708   -2.750644
H       0.783106   -1.076344   -3.016881
H      -0.974204   -1.077436   -2.950337
H       1.129469   -3.473989   -1.677078
H       0.229978   -4.363058   -0.434531
H      -0.631894   -3.634504   -1.804977
H      -2.030336   -1.637979    0.528159
H      -1.101950   -2.863610    1.491199
H       0.243932   -0.637063    2.198742
