22

C       1.033131   -0.416801   -1.106603
C       0.082894    0.006098    0.017245
C      -0.021842    1.531932    0.096615
N      -1.240023   -0.558361   -0.211820
C      -2.284355   -0.364275    0.827910
C      -2.675113   -1.847055    0.704347
O      -3.535220   -2.158338   -0.408140
C      -2.405736   -2.514734   -1.249008
C      -1.418042   -2.030361   -0.176127
H       2.034326   -0.010263   -0.933793
H       1.125538   -1.505143   -1.174071
H       0.667653   -0.047616   -2.070244
H       0.501979   -0.356537    0.980132
H      -0.686161    1.849955    0.905716
H       0.962184    1.973351    0.281339
H      -0.414686    1.933608   -0.843020
H      -1.868823   -0.145476    1.825054
H      -3.054331    0.374174    0.583801
H      -2.935212   -2.402283    1.607762
H      -2.387379   -3.595349   -1.444302
H      -2.390989   -1.957124   -2.190736
H      -0.543479   -2.632514    0.078321
