19

C      -0.003840    1.466125   -0.346799
C       0.031006    0.023528    0.099761
O       1.046356   -0.530692    0.455790
C      -1.298794   -0.757473    0.113136
C      -1.701446   -0.996192    1.577887
O      -2.270860    0.025274   -0.561381
C      -1.068860   -2.100815   -0.639267
C      -2.306873   -2.856287   -0.773329
C      -3.365827   -3.418321   -0.877907
H       0.991216    1.900743   -0.248323
H      -0.349163    1.524546   -1.383570
H      -0.732739    2.030339    0.243182
H      -1.914514   -0.041784    2.067374
H      -2.601747   -1.616507    1.621999
H      -0.897854   -1.500673    2.120231
H      -3.061908   -0.520130   -0.654500
H      -0.669564   -1.878779   -1.635918
H      -0.303807   -2.676316   -0.110409
H      -4.279279   -3.951314   -0.976452
