17

C       0.040790   -1.191545    0.148905
C       0.003591    0.006931    0.087011
C      -0.014104    1.463621   -0.029574
O      -0.736945    1.981407    1.093418
C      -0.741354    3.379251    1.187691
C       0.064747    3.973700    2.309474
C       0.533960    4.105096    0.865435
C       1.636739    3.268168    0.334102
C       1.393176    2.038107   -0.110482
H       0.064834   -2.251436    0.212110
H      -0.554796    1.724851   -0.956792
H      -1.694941    3.832445    0.923122
H      -0.309537    4.861108    2.808268
H       0.590900    3.267359    2.940838
H       0.444263    5.095212    0.426823
H       2.638716    3.687325    0.300331
H       2.164509    1.403641   -0.531979
