20

C      -0.090320    1.539277    0.080561
C       0.039703    0.016103   -0.068962
C       0.611179   -0.351113   -1.445826
C       0.856688   -0.561501    1.091818
C       0.906161   -2.101988    1.208922
N       2.265810   -2.280415    1.678293
C       3.057230   -1.196654    1.359917
O       4.252528   -1.114524    1.404967
O       2.238916   -0.168769    0.979660
H       0.893953    2.015263    0.033891
H      -0.707944    1.957318   -0.719897
H      -0.550170    1.809406    1.037022
H      -0.963494   -0.425368    0.025171
H       1.621043    0.051478   -1.562955
H       0.658441   -1.432571   -1.606427
H      -0.016576    0.069084   -2.237078
H       0.479778   -0.144637    2.035102
H       0.168145   -2.470502    1.927167
H       0.726393   -2.596053    0.244926
H       2.713259   -3.181995    1.703771
