15

N       0.171309    1.481388   -0.018229
C       0.014351    0.081979   -0.043039
C      -0.302988   -0.757499   -1.268733
O       0.503959   -1.755523   -1.789176
C      -1.156864   -0.938444   -0.061457
O      -0.471436   -1.811838    0.852271
C       0.591649   -0.838650    1.042142
C       1.937858   -1.391769    0.882236
N       3.007206   -1.819221    0.785704
H       0.178829    1.901334   -0.937418
H      -0.490365    1.965585    0.575860
H      -0.761100   -0.160947   -2.055532
H       0.512781   -2.485393   -1.156145
H      -2.235302   -0.872749    0.023788
H       0.507810   -0.390795    2.039142
