17

N       0.051062    1.518345   -0.077694
C      -0.005852    0.061421   -0.075089
C      -0.096648   -0.545447    1.351842
O      -1.420125   -1.052397    1.117607
C      -1.438801   -0.548955   -0.240456
C      -2.622377    0.384621   -0.438016
O      -3.819567   -0.325648   -0.185745
C       1.008801   -0.557347   -0.937993
N       1.819042   -1.002148   -1.633397
H       0.941588    1.826117    0.304627
H       0.012991    1.872542   -1.029975
H       0.619985   -1.343327    1.570365
H      -0.071216    0.215398    2.139443
H      -1.484784   -1.376896   -0.956646
H      -2.515080    1.261726    0.211944
H      -2.667499    0.728683   -1.477386
H      -3.742745   -0.675613    0.710214
