19

C       0.070725    1.563692   -0.088675
C       0.025360    0.069841   -0.068600
C      -1.019366   -0.747581    0.071047
C      -2.470276   -0.444073    0.250097
C      -0.525870   -2.187021    0.042614
O       0.874034   -2.106068   -0.225885
C       1.285518   -0.743651   -0.204917
C      -0.793239   -2.898934    1.300340
C      -1.031470   -3.473692    2.328952
H       0.716497    1.946881    0.711559
H       0.489910    1.933701   -1.032844
H      -0.918994    2.008452    0.036922
H      -3.066720   -0.866779   -0.568731
H      -2.847471   -0.890342    1.177584
H      -2.662597    0.630727    0.284581
H      -1.000523   -2.752697   -0.776073
H       1.832358   -0.519128   -1.133649
H       1.982221   -0.564449    0.631239
H      -1.231810   -3.988086    3.236276
