17

O      -0.066788   -0.004519    0.111302
C       0.070763    1.172769   -0.122643
C       1.359725    1.903129   -0.067423
C       2.700853    1.270466    0.359109
C       3.097418    2.718900    0.733846
C       2.957672    3.580007   -0.545841
C       1.614618    4.154998   -0.158939
C       1.669283    2.995742   -1.128286
C       1.587424    3.095583    0.977033
H      -0.806703    1.810806   -0.381739
H       2.573447    0.634188    1.239109
H       3.288433    0.747020   -0.399715
H       3.890541    2.953282    1.442178
H       3.729602    4.009102   -1.170233
H       1.201859    5.149123   -0.259006
H       1.457795    2.973974   -2.188965
H       1.097940    3.143032    1.946050
