15

C      -0.029691    1.444549    0.013569
N      -0.040990   -0.013959    0.002534
C      -1.180533   -0.723264   -0.153958
C      -1.175765   -2.083186   -0.162343
C       0.100907   -2.684850    0.003732
O       0.146616   -4.024220    0.000949
N       1.220993   -2.033735    0.157260
C       1.228373   -0.660751    0.167343
O       2.214762    0.032613    0.303346
H       0.610981    1.819371   -0.787682
H      -1.048600    1.811544   -0.120517
H       0.376862    1.808010    0.959915
H      -2.090801   -0.145753   -0.271365
H      -2.073992   -2.668287   -0.285846
H       1.079264   -4.258445    0.123642
