15

N      -0.437074    0.946794   -0.650438
C      -0.616157   -0.101941    0.022622
O      -0.422453   -1.311019   -0.557757
C      -0.804666   -2.445495    0.201857
C      -2.256519   -2.757275    0.009559
C      -3.196734   -2.293483   -0.855228
C      -4.356931   -3.029586   -0.489767
N      -4.135892   -3.857574    0.499695
O      -2.787524   -3.683380    0.823841
H      -0.590270    1.767535   -0.068449
H      -0.909089   -0.168060    1.079448
H      -0.183569   -3.274371   -0.152107
H      -0.588474   -2.307473    1.270302
H      -3.077433   -1.553229   -1.627344
H      -5.348541   -2.981619   -0.917566
