18

N      -0.066396   -1.145076    0.075933
C      -0.043532    0.012688    0.037069
C       0.003245    1.429276   -0.006245
C      -0.722640    2.488817    0.833324
C       0.590047    3.237083    1.064992
C       1.254733    2.365411   -0.050133
C       1.179525    3.056390   -1.416053
C      -0.340956    3.301419   -1.630260
C      -1.018545    2.351797   -0.642775
H      -1.494672    2.310855    1.572399
H       0.590990    4.321654    0.911862
H       1.003076    3.015833    2.051505
H       2.218868    1.923947    0.196447
H       1.763690    3.981448   -1.440306
H       1.574168    2.393713   -2.193557
H      -0.619571    4.341535   -1.431795
H      -0.646340    3.079306   -2.656107
H      -1.988174    1.930024   -0.881232
