17

O       0.007771   -0.008665    0.012453
C       0.016052    1.184368    0.062777
O       1.142098    1.909061   -0.100256
C       1.028852    3.314845   -0.021545
C       0.671402    4.084924    1.295568
C       1.327024    5.249357    0.473842
C       2.330114    4.160343   -0.058024
C       0.358942    5.341395   -0.715688
C       0.159649    4.065003   -1.049063
H      -0.878599    1.808127    0.245712
H      -0.383983    4.184856    1.556777
H       1.269882    3.765131    2.153307
H       1.670691    6.163933    0.950370
H       3.066406    3.844439    0.686165
H       2.790352    4.327403   -1.033043
H      -0.035164    6.245897   -1.156117
H      -0.427401    3.612776   -1.835326
