19

C      -0.042761    1.423262   -0.279795
C       1.309100    0.850565    0.009590
C       0.046309   -0.045981    0.089349
C       0.500439   -0.765645   -1.141470
C       0.094656   -1.495738   -2.170236
C       1.049512   -1.480076   -3.348381
C       1.632298   -0.058354   -3.518111
O       2.290411    0.466684   -2.361470
C       1.826216   -0.048296   -1.129784
H      -0.442466    2.070109    0.495515
H      -0.322541    1.707778   -1.289720
H       1.922322    1.216187    0.823459
H      -0.449743   -0.453132    0.960716
H      -0.864905   -1.999198   -2.231786
H       1.867302   -2.202665   -3.220510
H       0.535495   -1.752271   -4.276402
H       2.380603   -0.044348   -4.317969
H       0.812290    0.613829   -3.812884
H       2.605293   -0.705139   -0.711564
