23

C      -0.040087    1.540821    0.116148
C      -0.076690    0.014538   -0.022791
C      -1.534377   -0.474678   -0.086495
O      -2.285687   -0.139124    1.069888
C       0.713649   -0.514754   -1.238983
C       2.151416    0.043147   -1.320434
C       0.834801   -2.044555   -1.201334
C       0.779658   -2.765749   -2.535514
O       0.994496   -2.641985   -0.160234
H       0.954107    1.911085    0.378818
H      -0.348086    2.030761   -0.816243
H      -0.736861    1.850124    0.899067
H       0.378926   -0.440198    0.867094
H      -2.051497    0.012038   -0.923014
H      -1.562634   -1.559074   -0.266944
H      -1.915634   -0.633758    1.808499
H       0.190102   -0.231131   -2.162907
H       2.707190   -0.407316   -2.149425
H       2.145026    1.123738   -1.477912
H       2.696056   -0.171376   -0.395734
H       1.427210   -2.283077   -3.274958
H       1.063126   -3.811664   -2.411656
H      -0.242505   -2.712211   -2.930128
