25

C       2.105429   -0.221813   -0.860228
C       0.697334   -0.084815   -0.320031
C       0.019721   -1.237369    0.386903
C       0.369552    0.014474    1.155168
C       1.374680    0.084098    2.291877
C       1.959850    1.500242    2.377768
C       0.824938   -0.385004    3.681107
C       2.172256   -1.101581    3.954796
C       2.493794   -1.001246    2.440847
H       2.733505   -0.846327   -0.220675
H       2.092433   -0.680107   -1.855869
H       2.595546    0.753906   -0.955066
H       0.049629    0.505717   -0.964261
H      -1.024378   -1.446420    0.178619
H       0.616761   -2.127912    0.556845
H      -0.485775    0.656784    1.364980
H       1.162385    2.244800    2.484240
H       2.630387    1.607103    3.237274
H       2.529222    1.746163    1.475392
H       0.513227    0.398002    4.378906
H       0.001899   -1.095591    3.562657
H       2.849770   -0.501569    4.567724
H       2.123990   -2.104585    4.384634
H       2.251829   -1.931065    1.920956
H       3.507017   -0.701612    2.157850
