18

C      -0.043364    1.548807    0.018389
C      -0.014857    0.008060   -0.018931
C      -1.456055   -0.538030    0.010350
C       0.792721   -0.534006   -1.227229
C       1.968426   -1.332386   -0.638818
O       2.822962   -1.908682   -1.270125
C       1.841878   -1.252322    0.835665
C       0.769097   -0.527232    1.166013
H       0.968893    1.963888   -0.009661
H      -0.598072    1.943905   -0.839184
H      -0.531938    1.912282    0.929177
H      -2.025885   -0.165237   -0.847294
H      -1.465269   -1.631880   -0.023549
H      -1.978272   -0.224292    0.920959
H       0.200871   -1.191033   -1.871816
H       1.185418    0.262980   -1.866033
H       2.543971   -1.730266    1.507060
H       0.446165   -0.312451    2.181222
