18

C      -0.125086    1.531412    0.015939
C       0.013129    0.011859    0.008711
C       0.744196   -0.475600   -1.241436
O       0.994609   -1.890315   -1.240048
C       1.355762   -2.508375   -0.076145
N       2.015218   -3.588328   -0.072310
C       0.828498   -1.907085    1.213594
N       0.691734   -0.451716    1.221135
H       0.858857    2.015455   -0.000682
H      -0.685080    1.883382   -0.855686
H      -0.645302    1.854887    0.920540
H      -0.988450   -0.441273    0.018760
H       0.168437   -0.284503   -2.152054
H       1.707670    0.049588   -1.331038
H       2.240611   -3.863788   -1.031484
H      -0.165873   -2.340499    1.391648
H       1.470108   -2.234831    2.032617
H       1.613742   -0.023383    1.269944
