17

C      -0.092336    1.616086    0.168678
C       0.125929    0.116773    0.138728
O       1.224746   -0.392909    0.184899
C      -1.080956   -0.685418    0.051934
C      -2.084506   -1.354818   -0.016725
C      -3.293720   -2.152107   -0.106753
C      -4.001918   -2.215757   -1.491242
C      -3.772456   -3.734785   -1.374482
O      -3.061353   -3.580451   -0.125582
H       0.871829    2.123193    0.226445
H      -0.632868    1.937138   -0.728296
H      -0.711745    1.888275    1.030165
H      -3.966740   -1.880326    0.718201
H      -5.038503   -1.878697   -1.493168
H      -3.453265   -1.725027   -2.294576
H      -4.679100   -4.338960   -1.252193
H      -3.141925   -4.186979   -2.147584
