21

C      -0.065844    1.498694    0.083142
C      -0.032811    0.045960   -0.003286
C       0.009595   -1.155140   -0.088617
C       0.000019   -2.614855   -0.151374
O      -1.340930   -3.106748   -0.321348
C       0.810934   -3.201410   -1.345347
C       2.227527   -2.634910   -1.387094
C       0.835359   -4.735222   -1.228437
O       0.172037   -2.812006   -2.553049
H       0.937053    1.903550    0.257310
H      -0.447459    1.943547   -0.842141
H      -0.705798    1.835640    0.905965
H       0.419835   -3.018232    0.783134
H      -1.935058   -2.474990    0.094690
H       2.769745   -2.862251   -0.463813
H       2.773819   -3.078519   -2.224172
H       2.202231   -1.552097   -1.524376
H      -0.179590   -5.134741   -1.164413
H       1.320481   -5.154881   -2.113539
H       1.388955   -5.061064   -0.341106
H      -0.770998   -2.962517   -2.405083
