16

N      -0.063543    1.458117   -0.031887
C      -0.033759    0.015802   -0.057699
C       0.817352   -0.501303    1.015810
N       1.513192   -0.906993    1.844557
C      -1.380054   -0.720570   -0.101470
C      -1.756437   -0.815096   -1.580180
N      -0.708352   -0.072551   -2.324525
C       0.257732   -0.767099   -1.408817
C      -0.826243   -1.829470   -0.986001
H       0.870833    1.841051    0.075426
H      -0.430384    1.766329   -0.930167
H      -2.112462   -0.788422    0.691488
H      -2.784137   -0.888905   -1.910267
H      -0.620665   -0.503065   -3.243856
H       1.273361   -0.929914   -1.761058
H      -0.836437   -2.903584   -0.871922
