19

O       0.108373    1.280739    0.725651
C       0.032361    0.135260   -0.116748
C      -1.326167   -0.390365   -0.113312
C      -2.444779   -0.838276   -0.117241
C      -3.791009   -1.381702   -0.135768
C      -4.533887   -1.537194   -1.521346
C      -4.716038   -3.030487   -1.235227
C      -3.377081   -3.683345   -1.035419
C      -3.975418   -2.897948    0.095051
H       1.017535    1.596013    0.696751
H       0.320462    0.384852   -1.151477
H       0.724601   -0.652989    0.222732
H      -4.421927   -0.810970    0.552091
H      -5.467171   -0.971224   -1.541404
H      -3.945820   -1.285611   -2.408421
H      -5.606316   -3.604689   -1.459692
H      -3.397878   -4.760679   -0.906189
H      -2.497583   -3.312343   -1.556595
H      -4.192813   -3.345182    1.057208
