14

N      -0.022360    1.362786    0.009930
C       1.287651    1.767662   -0.000645
N       2.147026    0.782203   -0.014423
C       1.363723   -0.360741   -0.012948
C      -0.006157   -0.019440    0.002313
C      -0.988261   -1.006198    0.006580
N      -0.651658   -2.291530   -0.003680
C       0.656730   -2.620917   -0.018283
C       1.706590   -1.713611   -0.023646
H      -0.831909    1.959860    0.021200
H       1.546694    2.817647    0.002511
H      -2.049751   -0.767346    0.018277
H       0.865334   -3.687224   -0.026112
H       2.740561   -2.036944   -0.035530
