22

C      -0.803996    1.565154   -0.247806
C      -0.479327    0.125531    0.096753
C       0.803686   -0.511248   -0.334629
N       0.506629   -0.314548    1.075369
C       1.307372    0.544039    1.978734
C       2.158847   -0.435565    2.821065
C       2.258772    1.570038    1.316000
C       0.377098    1.252962    2.869317
C      -0.358725    1.840165    3.616736
H       0.081788    2.152124   -0.498148
H      -1.467466    1.583908   -1.119404
H      -1.320914    2.062053    0.578070
H      -1.367056   -0.507385    0.118105
H       0.846217   -1.544718   -0.672984
H       1.519650    0.147361   -0.823839
H       2.838117   -0.985657    2.162159
H       2.751042    0.102904    3.566036
H       1.509885   -1.151964    3.326817
H       1.723296    2.328853    0.744545
H       2.830715    2.083728    2.093545
H       2.969073    1.061885    0.657193
H      -1.014543    2.353310    4.275756
