19

C      -0.204492    1.552149    0.052212
C       0.049603    0.046292    0.002076
O       0.785429   -0.337382   -1.161274
C       2.198163   -0.358545   -1.043691
C       2.639755   -0.880328    0.348085
C       1.508800   -1.809370    0.893162
C       0.747471   -0.501087    1.279920
C       2.136341    0.140154    1.370572
O       2.637094    1.007303    2.028305
H       0.726884    2.115114    0.162298
H      -0.702365    1.875772   -0.865506
H      -0.847280    1.803105    0.902497
H      -0.910295   -0.474326   -0.104125
H       2.552312   -1.032605   -1.830689
H       2.637543    0.634018   -1.225892
H       3.687019   -1.186243    0.355993
H       1.018615   -2.456276    0.164516
H       1.825934   -2.381400    1.766460
H       0.082929   -0.466883    2.144669
