18

C      -0.490875    1.417068   -0.103423
C       0.014863   -0.003780    0.080897
C       0.838411   -0.571545   -1.109540
N       2.172217   -0.846819   -0.560064
C       2.126132   -0.526131    0.668359
C       3.255202   -0.639857    1.642297
C       4.562683   -1.050089    0.983763
O       5.332830   -1.831105    1.476619
O       0.967791   -0.040358    1.182874
H       0.331910    2.087230   -0.372289
H      -1.234379    1.447204   -0.906660
H      -0.958471    1.789883    0.811868
H      -0.809234   -0.667558    0.360884
H       0.406581   -1.490686   -1.518354
H       0.913579    0.146929   -1.934413
H       3.401370    0.337749    2.124257
H       3.011782   -1.347921    2.440437
H       4.769224   -0.551955    0.015709
