17

C      -0.015043    1.468845    0.030041
C       0.043489   -0.031802    0.023907
C      -0.355721   -0.930836   -1.123005
O       0.500975   -2.048809   -1.208630
C       0.791556   -2.228445    0.140665
C      -0.490513   -2.058791    1.032800
O       0.311706   -1.338058    2.007388
C       1.050298   -0.859453    0.853757
C      -1.155002   -0.983210    0.161354
H       0.903133    1.905045   -0.379515
H      -0.851963    1.835755   -0.573000
H      -0.146723    1.852355    1.047521
H      -0.736569   -0.584092   -2.075083
H       1.461704   -3.062895    0.322918
H      -1.086802   -2.866371    1.452474
H       2.024495   -0.433116    1.088897
H      -2.183714   -0.664452    0.254565
