19

C      -0.147833    1.561781   -0.096266
C      -0.013158    0.051812   -0.010743
O      -1.310733   -0.513096    0.229256
C      -1.333771   -0.833349    1.637457
O      -0.010042   -0.700071    2.204971
C       0.766076   -0.691213    1.048802
C       2.089225   -0.152855    0.455644
C       1.183291   -0.664226   -0.758910
C       0.902357   -1.921339    0.084480
H       0.769576    2.058232   -0.419665
H      -0.929226    1.797499   -0.825014
H      -0.454514    1.987397    0.865656
H      -1.996075   -0.150032    2.180875
H      -1.681436   -1.869011    1.737493
H       2.288506    0.915012    0.533486
H       2.988243   -0.745178    0.634621
H       1.455630   -0.615504   -1.811782
H       1.752180   -2.581254    0.267437
H      -0.008303   -2.469689   -0.148684
