18

C       0.152416    1.523478   -0.070577
C      -0.026595    0.012869    0.032809
O       0.535639   -0.535904   -1.162890
C       0.651720   -1.928604   -1.201503
C       2.044140   -2.490070   -1.094330
C       1.059817   -2.633417    0.060476
C       1.154643   -1.781856    1.270988
C       0.621674   -0.561622    1.273093
H       1.216058    1.778808   -0.083356
H      -0.304036    1.894869   -0.991575
H      -0.318669    2.023809    0.780922
H      -1.107677   -0.213330    0.058833
H      -0.057956   -2.409815   -1.872438
H       2.297114   -3.377818   -1.664094
H       2.840026   -1.763136   -0.981113
H       0.663568   -3.632560    0.221305
H       1.642860   -2.186454    2.153621
H       0.641573    0.066825    2.159059
