25

C      -0.178961    1.552603    0.731531
C      -0.138496    0.024351    0.853429
C      -1.420704   -0.626880    0.373209
C      -1.645049   -0.913635   -1.093567
C      -1.508790   -2.057008   -0.113155
C      -0.322944   -3.004870   -0.154687
C      -0.081514   -3.672433    1.206569
C      -0.530087   -4.050458   -1.253469
O       0.646985   -4.841846   -1.349884
H       0.750300    2.005208    1.091697
H      -0.323913    1.859548   -0.309542
H      -1.003686    1.973691    1.317306
H       0.714829   -0.360395    0.283876
H       0.044604   -0.251109    1.900482
H      -2.299999   -0.281963    0.914301
H      -2.613412   -0.705994   -1.535981
H      -0.807341   -0.736019   -1.762865
H      -2.440614   -2.559679    0.143016
H       0.578757   -2.444493   -0.431153
H      -0.976216   -4.215581    1.535322
H       0.742405   -4.386838    1.143770
H       0.155525   -2.929058    1.973239
H      -1.407078   -4.672772   -1.006249
H      -0.744998   -3.542329   -2.205967
H       0.495113   -5.528491   -2.005151
