14

N      -0.080928    1.239774    0.329104
C       0.027350    0.001961    0.079375
N      -1.116850   -0.748721   -0.177567
C      -1.186718   -2.113042   -0.293603
O      -2.220896   -2.715308   -0.467500
C       0.140130   -2.835890   -0.127762
O       1.315218   -2.052893   -0.345692
C       1.336537   -0.739022   -0.013975
N       2.410495   -0.091538    0.145320
H       0.854718    1.628564    0.461480
H      -1.990513   -0.236350   -0.206288
H       0.166854   -3.264061    0.883094
H       0.172760   -3.657803   -0.843738
H       3.223575   -0.699542    0.041936
