21

C       0.163638    1.593741   -0.100696
C      -0.051140    0.077595    0.052953
C       0.647336   -0.518402    1.250932
C      -0.001054   -0.949297    2.337089
C       0.680868   -1.550411    3.541910
C       2.004522   -2.258074    3.191588
C       2.828090   -1.483292    2.171443
O       2.692364   -1.890894    0.803767
C       2.135994   -0.620125    1.206050
H       1.223029    1.845739   -0.213117
H      -0.359079    1.971038   -0.985139
H      -0.215623    2.131214    0.774208
H      -1.124826   -0.127844    0.126775
H       0.302296   -0.427912   -0.855845
H      -1.085586   -0.864162    2.375715
H       0.862854   -0.760075    4.285568
H       0.006436   -2.260337    4.033162
H       2.592360   -2.426178    4.099617
H       1.789426   -3.240867    2.759569
H       3.851033   -1.232815    2.451622
H       2.669633    0.231724    0.784163
