19

C      -0.227922    1.445823   -0.141470
N       0.005699    0.014878    0.034566
C       1.369661   -0.466442   -0.167945
C       0.769859   -0.458076    1.193261
C       1.292582    0.450462    2.276728
C       0.279454    0.887429    3.313335
C       2.717304    0.363809    2.642682
O       2.225053    1.463299    1.871175
H       0.596796    2.087080    0.195366
H      -0.401470    1.634584   -1.205817
H      -1.137638    1.730645    0.397772
H       1.471866   -1.395809   -0.722705
H       2.143500    0.276062   -0.353163
H       0.383389   -1.394568    1.597080
H      -0.168671    0.016842    3.803944
H       0.751311    1.513295    4.074821
H      -0.528859    1.460387    2.848990
H       3.028563    0.612699    3.656284
H       3.369219   -0.324951    2.108120
