16

O       0.176609   -0.063812    0.190457
C       0.127578    1.132663    0.089294
C       1.345832    2.030279   -0.079538
C       1.228142    2.884384   -1.334542
O       2.040179    2.902325   -2.220241
C       1.448448    2.953571    1.135638
C       2.127806    2.466184    2.390826
C       2.788538    3.517954    1.535884
H      -0.843428    1.677635    0.141248
H       2.233700    1.399744   -0.169002
H       0.322661    3.533658   -1.367551
H       0.588558    3.604714    1.272132
H       1.707727    2.762901    3.345133
H       2.545395    1.465387    2.379840
H       3.652077    3.227036    0.947869
H       2.822579    4.537550    1.902591
