23

C      -0.916184    1.060093   -0.127134
C       0.167739    0.000967   -0.002824
C       1.467606    0.168103   -0.850245
C       2.275050   -0.212962    0.401055
C       1.038807   -0.017700    1.290792
C       3.212495   -1.368622    0.592002
C       4.158581   -1.508269   -0.606204
C       4.629743   -0.031672   -0.390429
C       3.681350    0.081343    0.810819
H      -0.505898    2.062626    0.041448
H      -1.370788    1.050364   -1.124289
H      -1.716077    0.900675    0.604980
H      -0.261195   -0.991769   -0.174911
H       1.568081   -0.470590   -1.732204
H       1.628385    1.208875   -1.155078
H       1.035907    0.952814    1.800987
H       0.821774   -0.795744    2.028690
H       3.008733   -2.140720    1.326424
H       4.963865   -2.225402   -0.431781
H       3.689781   -1.744522   -1.567660
H       5.684554    0.027817   -0.113334
H       4.447605    0.670788   -1.210976
H       3.899935    0.598070    1.739304
