14

C      -0.026287    1.445219    0.036327
N      -0.009116   -0.007227    0.024986
C      -0.029334   -0.793174   -1.077325
N      -0.006156   -2.084630   -0.790383
C       0.030952   -2.138967    0.567232
C       0.030476   -0.867222    1.118568
C       0.062479   -0.440826    2.505025
O       0.096587   -1.200507    3.450267
H       0.871691    1.843671    0.516395
H      -0.057374    1.799801   -0.995285
H      -0.907384    1.822319    0.562703
H      -0.061069   -0.371184   -2.072060
H       0.056666   -3.072719    1.107878
H       0.053143    0.661688    2.662914
