16

C      -0.152027    1.430139    0.042444
C      -0.051085   -0.021575    0.025630
C       0.063262   -1.225123    0.010282
C       0.097284   -2.636315   -0.003394
C       1.184829   -3.496199   -0.060448
N       0.711213   -4.770590   -0.049638
C      -0.671636   -4.777799    0.013318
C      -1.073066   -3.466562    0.042996
O      -2.354184   -3.023716    0.105350
H       0.842713    1.889625    0.031274
H      -0.698121    1.808802   -0.829462
H      -0.669038    1.789655    0.939771
H       2.239111   -3.280220   -0.106757
H       1.283165   -5.594902   -0.082773
H      -1.238211   -5.692362    0.031312
H      -2.319097   -2.058587    0.111678
