21

O      -0.010324    1.424175   -0.021413
C       0.022804    0.004072   -0.008919
C      -1.410511   -0.513330    0.017200
C      -2.179283   -0.094713   -1.238448
O      -3.555326   -0.435024   -1.159901
C      -3.840766   -1.755939   -0.806342
C      -3.250329   -2.942044   -1.518384
C      -2.835141   -2.620140   -0.087964
C      -1.446198   -2.043799    0.182008
H       0.892808    1.748119   -0.081123
H       0.540354   -0.389358   -0.900457
H       0.563643   -0.374318    0.873717
H      -1.918753   -0.050440    0.872666
H      -2.148813    0.989044   -1.360648
H      -1.713287   -0.545106   -2.132265
H      -4.881219   -1.819133   -0.505300
H      -3.887988   -3.800488   -1.700088
H      -2.513063   -2.765368   -2.294863
H      -3.224812   -3.274143    0.685427
H      -0.709762   -2.500613   -0.493216
H      -1.130905   -2.306619    1.197245
