15

O       0.312720    1.485441    0.174651
C       0.087748    0.115364   -0.036827
C       0.982400   -0.542139   -1.038284
C       1.131826   -0.864020    0.436594
C      -1.365288   -0.258481    0.036158
C      -2.214772   -0.339057   -1.157029
O      -1.738398   -1.523560   -0.504899
H       0.234488    1.657657    1.119603
H       0.552348   -1.306269   -1.674763
H       1.735699    0.088825   -1.494499
H       1.991177   -0.452478    0.954548
H       0.802833   -1.839369    0.777671
H      -1.847834   -0.020230    0.987848
H      -3.286069   -0.164542   -1.074532
H      -1.776766   -0.138753   -2.132761
