16

N       0.026404    1.244715   -0.627868
C       0.060404    0.086336    0.096230
O       1.033128   -0.292444    0.710839
C      -1.255104   -0.702822    0.077273
O      -1.056004   -2.085523    0.369018
C      -1.543875   -1.929684    1.716476
C      -2.118509   -0.526592    1.376441
C      -1.884554    0.588018    2.266076
C      -1.695005    1.516348    3.006005
H       0.789537    1.891316   -0.504592
H      -0.836377    1.607189   -0.996856
H      -1.792064   -0.555718   -0.867828
H      -2.270740   -2.701439    1.986692
H      -0.725185   -1.900528    2.441745
H      -3.180421   -0.594464    1.124320
H      -1.516731    2.328988    3.666085
