23

C       0.320752   -0.839407    0.981177
C      -0.170576   -0.256750   -0.345668
C       0.829814   -0.408423   -1.496092
C       1.090388   -1.863558   -1.966700
C       0.828519   -1.828568   -3.489242
C       0.823336   -0.325870   -3.791333
O       0.279685    0.267858   -2.614712
O       2.115559    0.115288   -1.178090
C       2.167345    1.505856   -0.908835
H       0.504627   -1.916215    0.904994
H       1.256142   -0.370460    1.297981
H      -0.422824   -0.686279    1.768893
H      -1.101669   -0.741140   -0.658564
H      -0.408569    0.806238   -0.230629
H       2.121786   -2.128514   -1.730284
H       0.432432   -2.570388   -1.457018
H       1.580554   -2.372597   -4.065637
H      -0.149542   -2.258968   -3.723329
H       1.841294    0.045341   -3.975038
H       0.188193   -0.038576   -4.632776
H       1.637275    2.081490   -1.675139
H       1.749179    1.755310    0.076346
H       3.224168    1.784312   -0.915002
