13

C      -0.038804    1.443229   -0.123829
N      -0.043670   -0.003224   -0.289380
C      -1.052334   -0.654379    0.052875
C      -1.439434   -2.118543    0.043596
C      -2.758964   -1.600775    0.650083
O      -2.259339   -0.231699    0.601690
H       0.802755    1.727599    0.517431
H       0.131046    1.914805   -1.098046
H      -0.961411    1.849518    0.306824
H      -1.510610   -2.567023   -0.948659
H      -0.832673   -2.756617    0.688167
H      -3.653616   -1.713036    0.032418
H      -2.971871   -1.903660    1.678406
