17

C      -0.172809    1.599514    0.041971
C       0.059761    0.089152    0.003122
N       0.912357   -0.329645   -1.104630
C       1.826242   -1.317404   -0.807877
O       2.454783   -1.968030   -1.613249
C       1.880874   -1.406942    0.695512
C       2.242932   -0.108847    1.390364
C       0.800643   -0.483879    1.215137
H       0.772313    2.140240    0.140699
H      -0.671012    1.943505   -0.870638
H      -0.813820    1.861539    0.889626
H      -0.919526   -0.409791   -0.067300
H       0.676107   -0.147167   -2.067282
H       2.142394   -2.358270    1.138261
H       2.655558   -0.192890    2.389547
H       2.667331    0.690809    0.792658
H       0.212159   -0.734114    2.089116
