15

O       0.045451    0.372929   -1.282430
C       0.008583    1.266274   -0.490672
C      -1.101640    1.916763    0.362564
C      -0.106906    3.082469    0.714613
C       0.050223    3.447042    2.106115
C       0.196275    3.734465    3.264640
C       1.030867    2.256036    0.051220
C       2.381213    1.967776    0.556484
O       2.160926    2.766522   -0.607826
H      -2.004625    2.201586   -0.180308
H      -1.377264    1.305241    1.225403
H      -0.319455    3.966244    0.104581
H       0.314271    3.996461    4.287086
H       2.722766    2.505038    1.438874
H       2.820045    0.988833    0.374564
