15

C       0.054825    1.470719    0.013148
C      -0.052666   -0.014739    0.057607
N      -0.054088   -0.767689   -1.005738
O      -0.171523   -2.059919   -0.559196
N      -0.245880   -2.108192    0.808934
C      -0.163383   -0.861160    1.212222
N      -0.214379   -0.417160    2.517298
C       0.153316   -1.229945    3.443208
N       0.029785   -0.923325    4.750729
H       0.962121    1.809510    0.523492
H       0.079693    1.819089   -1.020659
H      -0.793660    1.931817    0.527920
H       0.575873   -2.219241    3.242872
H       0.450733   -1.498450    5.457261
H      -0.313670   -0.012273    5.009087
