19

C      -0.168098    1.472761   -0.229028
C       0.078342    0.000924    0.001814
C      -0.734257   -0.963795   -0.860062
C      -2.029884   -1.386527   -0.217526
C      -2.087290   -2.062090    0.939677
C      -0.932651   -2.467928    1.739091
C       0.240240   -1.825177    1.857333
C       0.549779   -0.479869    1.306698
O       1.453531   -0.373563    0.184404
H       0.419666    2.085009    0.459160
H       0.103911    1.749475   -1.253682
H      -1.229169    1.707501   -0.088003
H      -0.915053   -0.522097   -1.844980
H      -0.101451   -1.846834   -1.009752
H      -2.955600   -1.162395   -0.740458
H      -3.057345   -2.393782    1.303452
H      -1.057660   -3.390693    2.303803
H       1.009847   -2.255479    2.494946
H       0.754664    0.271527    2.073881
