21

C       0.369128    1.318319    0.432030
C      -0.111646   -0.088729    0.053491
C       0.528268   -0.585433   -1.227474
C       1.798880   -1.409214   -1.204385
O       2.302788   -1.867154    0.020599
C       0.511098   -2.047283   -1.655253
C      -0.149311   -3.137490   -0.827486
C       0.512039   -4.479096   -1.073484
O      -0.062488   -5.472346   -1.439925
H       1.453167    1.339188    0.591788
H       0.142001    2.041716   -0.358549
H      -0.110515    1.666845    1.351688
H       0.111751   -0.777565    0.873385
H      -1.202898   -0.082207   -0.059911
H       0.456331    0.122183   -2.051283
H       2.560874   -1.210143   -1.957238
H       2.760613   -1.137883    0.451812
H       0.428151   -2.211755   -2.726452
H      -0.036179   -2.918490    0.239483
H      -1.215749   -3.224736   -1.055327
H       1.609296   -4.480433   -0.886557
