17

C      -0.089623    1.529586   -0.008223
C      -0.017823    0.024931   -0.016935
C       0.021865   -0.693299   -1.205674
C       0.087723   -2.081484   -1.113218
F       0.126260   -2.780811   -2.247283
N       0.115923   -2.777665   -0.005569
C       0.077837   -2.090178    1.152548
C       0.111459   -2.914426    2.411244
C       0.011427   -0.701899    1.181000
H       0.769493    1.959291    0.518265
H      -0.105379    1.936836   -1.021830
H      -0.989464    1.875422    0.511954
H       0.003231   -0.210942   -2.175310
H       1.020663   -3.523388    2.442083
H       0.077433   -2.288521    3.305862
H      -0.735759   -3.607349    2.434016
H      -0.017705   -0.182580    2.133111
