16

O      -0.057481    1.368623   -0.025307
C       0.016733   -0.040148    0.114641
C       0.524153   -0.358177    1.534540
C      -0.702501   -0.816504    2.279336
C      -1.757642   -0.991420    1.489354
C      -1.455211   -0.655505    0.041555
O      -2.373891    0.253145   -0.534860
C      -1.466489   -1.866103   -0.795893
N      -1.423333   -2.834224   -1.425384
H      -0.206581    1.562740   -0.957498
H       0.653920   -0.470571   -0.663522
H       1.292743   -1.139895    1.515499
H       0.985174    0.532274    1.973792
H      -0.694240   -0.995769    3.348705
H      -2.744109   -1.328676    1.781550
H      -2.188255    1.098128   -0.101093
