20

C       0.529018    1.410595    0.475218
C      -0.128087    0.106970   -0.025464
C      -1.580339    0.358843   -0.375803
C      -2.635711   -0.607671   -0.067303
O      -2.449620    0.556129    0.745017
C       0.658557   -0.499631   -1.168501
C       2.046533   -1.024599   -0.910611
N       0.092842   -0.528837   -2.314175
O       0.928550   -1.091893   -3.293295
H       1.564122    1.247595    0.788388
H       0.529612    2.169198   -0.314443
H      -0.031399    1.800100    1.329097
H      -0.112940   -0.612622    0.805398
H      -1.749061    1.051150   -1.199067
H      -3.548022   -0.623846   -0.661511
H      -2.376373   -1.553446    0.407389
H       2.144144   -2.037389   -1.312009
H       2.794646   -0.412704   -1.426112
H       2.278577   -1.035190    0.156068
H       0.368487   -1.064976   -4.076090
