15

N      -2.465287    1.188082    0.188951
C      -2.270871   -0.008282   -0.146301
O      -1.222156   -0.685046    0.399896
C      -1.177541   -2.049464    0.298010
C       0.079414   -2.641053    0.203490
C       0.146086   -4.026555    0.135372
N      -0.921932   -4.832068    0.150251
C      -2.113943   -4.242733    0.250719
C      -2.306530   -2.865123    0.335120
H      -3.244490    1.576941   -0.338685
H      -2.831520   -0.599750   -0.877848
H       0.969181   -2.023921    0.182351
H       1.114039   -4.515806    0.060331
H      -2.976677   -4.904315    0.275213
H      -3.302226   -2.456099    0.454664
