18

C      -0.015918    1.444416   -0.107887
N       0.015965    0.014795    0.097707
C      -1.233054   -0.688987    0.451651
C      -0.431262   -1.562548    1.433514
O       0.048341   -2.780197    0.871262
C       1.376067   -2.714240    0.538826
O       1.942659   -3.630409    0.024226
C       1.948995   -1.356201    0.952147
C       0.718881   -0.530750    1.280316
H       0.998192    1.818735   -0.282295
H      -0.613076    1.676364   -0.995752
H      -0.445432    2.000319    0.747546
H      -1.962421   -0.057435    0.984453
H      -1.731426   -1.201098   -0.377259
H      -0.864525   -1.770295    2.411617
H       2.605494   -1.506438    1.816246
H       2.546050   -0.946466    0.135934
H       0.837922    0.177382    2.109707
