19

C      -0.156651    1.478345    0.140738
C       0.009211   -0.040448    0.074307
C      -1.328906   -0.766380    0.159384
O      -2.392005   -0.207921    0.264309
C       0.763612   -0.501461   -1.184303
C       2.249354   -0.065220   -1.412785
C       2.624700   -1.520293   -1.824901
C       1.265127   -1.958134   -1.263102
O       0.814470   -3.003742   -0.890383
H       0.815607    1.979025    0.133258
H      -0.739934    1.841899   -0.710434
H      -0.691045    1.768943    1.048198
H       0.588900   -0.391824    0.943453
H      -1.255200   -1.872290    0.111856
H       0.165692   -0.280074   -2.078893
H       2.413109    0.710032   -2.161198
H       2.731995    0.234153   -0.479166
H       2.674328   -1.663147   -2.909262
H       3.505198   -1.981928   -1.372414
