17

C       0.246407    1.271917   -0.173190
O      -0.425126    0.124525    0.316286
C       0.366445   -0.616173    1.192479
C       0.115847   -2.022737    1.606881
C      -0.097834   -3.023847    0.457880
C      -0.078337   -2.462044   -0.908093
N       1.208464   -2.680658   -0.194919
C       1.425039   -1.642182    0.881139
H       1.140820    1.002120   -0.751559
H      -0.455497    1.803754   -0.818843
H       0.550454    1.937565    0.648742
H       0.695332   -0.019228    2.050607
H      -0.046609   -2.297450    2.641557
H      -0.344987   -4.059980    0.665855
H      -0.192059   -3.175672   -1.720166
H      -0.442646   -1.464598   -1.099869
H       2.438533   -1.558868    1.256467
