15

O       0.567957    1.001391   -1.499318
C       0.242310    1.540566   -0.456431
N       1.090301    1.681677    0.604446
C       2.439153    1.151837    0.563044
C       3.371488    2.008295   -0.327406
C       4.741458    1.506008   -0.311842
N       5.819701    1.092272   -0.274217
C      -1.084691    2.093547   -0.227329
C      -2.188152    2.542803   -0.067441
H       0.759269    2.150362    1.431623
H       2.824083    1.111700    1.584005
H       2.410717    0.133397    0.166519
H       2.987247    1.993063   -1.351403
H       3.368028    3.048430    0.015624
H      -3.167947    2.935171    0.059837
