23

C       0.039698    1.575125   -0.151349
C       0.025651    0.043987    0.036546
C       0.545717   -0.569792   -1.251735
O      -0.108756   -1.240161   -2.008522
C       0.802301   -0.490788    1.286742
C       0.855399   -2.031569    1.224961
C       2.233734    0.071042    1.387171
C       0.008453   -0.085647    2.545000
O       0.674924   -0.595505    3.691635
H       1.039833    1.942893   -0.401026
H      -0.631530    1.859636   -0.967341
H      -0.292931    2.098974    0.747931
H      -1.013862   -0.294149    0.121729
H       1.607608   -0.323347   -1.488016
H       1.492476   -2.379169    0.405532
H       1.253476   -2.430924    2.159783
H      -0.143006   -2.454514    1.068579
H       2.239459    1.162432    1.468749
H       2.720542   -0.327171    2.279900
H       2.840150   -0.206357    0.519681
H      -0.072387    1.009454    2.606182
H      -1.013156   -0.492251    2.471271
H       0.182652   -0.324891    4.471397
