16

N      -0.215355    1.450261    0.062002
C       0.000025    0.059792   -0.012944
C      -0.977489   -1.103956    0.058914
N      -0.387497   -1.745049   -1.109852
C       0.816651   -0.849659   -1.005609
C       1.827896   -1.529869   -0.123002
N       2.967853   -1.962663   -0.450250
O       1.248743   -1.666445    1.123446
C       0.072572   -0.875378    1.149253
H       0.625177    1.954598    0.325013
H      -0.554881    1.830988   -0.814938
H      -2.042845   -1.130201    0.258682
H      -0.168022   -2.733436   -0.982903
H       1.199696   -0.471536   -1.951150
H       3.423437   -2.416082    0.344319
H      -0.223128   -0.570723    2.144100
