14

C      -0.001470   -1.106061   -0.048341
C      -0.011171    0.094907    0.021776
C       0.030805    1.508460    0.103143
C      -0.928396    2.401124    0.829504
C      -0.005350    3.629699    1.039059
O       1.319981    3.140945    1.340824
C       1.253462    2.479038    0.064024
C       0.222954    3.493249   -0.490119
N      -0.887232    2.447227   -0.665336
H      -0.003760   -2.166144   -0.111406
H      -1.790964    2.046077    1.377959
H      -0.318210    4.497476    1.614575
H       2.208104    2.165183   -0.350002
H       0.381375    4.278443   -1.224110
