20

C      -0.105340    1.413998   -0.387817
C      -0.245546   -0.022475    0.027116
N      -0.585166   -0.349330    1.202944
O       0.058128   -0.834871   -1.030730
C      -0.104715   -2.254951   -0.929392
C      -1.579628   -2.667507   -1.069301
O      -2.192613   -2.193034   -2.244342
C       0.786097   -2.822347   -2.035987
O       0.398651   -2.358909   -3.325667
H       0.907424    1.605680   -0.755952
H      -0.798089    1.636816   -1.205295
H      -0.317494    2.061496    0.461418
H      -0.641853   -1.356468    1.343775
H       0.279863   -2.616864    0.035332
H      -1.618032   -3.768721   -0.990058
H      -2.156823   -2.264399   -0.231354
H      -1.589095   -2.388696   -2.974645
H       1.833434   -2.564178   -1.827657
H       0.701024   -3.912848   -2.057053
H       0.443756   -1.395259   -3.288432
