24

C      -0.092870    1.574177   -0.179287
C       0.110753    0.058967   -0.079784
C       0.922322   -0.395423    1.154362
C       0.633329   -1.902862    1.385798
C       1.225549   -2.493716    2.584259
N       1.677459   -2.976054    3.532857
C       2.432439   -0.035288    1.028286
C       3.105572    0.197226    2.390512
C       3.235313   -1.037480    0.183328
H       0.853498    2.116769   -0.263168
H      -0.691902    1.826073   -1.059694
H      -0.618576    1.958391    0.701711
H      -0.876135   -0.420155   -0.052969
H       0.597933   -0.310658   -0.991671
H       0.525675    0.142595    2.025248
H      -0.450863   -2.046357    1.457033
H       0.964088   -2.487684    0.520141
H       2.464890    0.924490    0.498035
H       3.132821   -0.712329    2.995785
H       4.137741    0.536381    2.252446
H       2.577263    0.966234    2.964162
H       2.767058   -1.231804   -0.787785
H       4.238686   -0.646777   -0.012086
H       3.358278   -1.995418    0.699820
