17

C       0.054010    1.620657    0.043533
N       1.514077    1.927762   -0.043950
C       2.013673    0.898395   -0.586374
N       3.229613    0.151177   -0.303100
C       2.269313   -1.052997   -0.163851
C       1.684165   -1.155205    1.227113
C       0.479223   -0.582660    1.329908
C      -0.031520    0.043997    0.038188
C       1.135693   -0.281211   -0.898940
H      -0.333087    2.059728    0.967451
H      -0.510061    2.055799   -0.791944
H       3.817902    0.018197   -1.124494
H       2.677539   -1.976697   -0.579674
H       2.225904   -1.607365    2.049737
H      -0.082872   -0.512820    2.256089
H      -1.021480   -0.319233   -0.253232
H       0.946153   -0.527511   -1.942860
