10

O      -0.041392   -0.036573    0.003432
C      -0.024371    1.172613    0.006466
C       1.188528    1.955399    0.000348
C       2.212719    2.585937   -0.004935
C      -1.296951    1.952198    0.017208
N      -1.387053    3.254552    0.021240
O      -2.693550    3.517669    0.030970
N      -3.402723    2.280172    0.032260
N      -2.553304    1.367035    0.024202
H       3.118712    3.143423   -0.009803
