19

C       0.132242    1.539216    0.134498
C      -0.042615    0.020624   -0.046002
C       0.666545   -0.518377   -1.250846
C       0.164446   -0.978554   -2.422615
O       1.134904   -1.343022   -3.270771
N       2.375049   -1.134533   -2.648120
C       2.085172   -0.638716   -1.462485
N       3.070146   -0.251275   -0.580794
C       4.446532   -0.636734   -0.858981
H       1.191229    1.806557    0.197413
H      -0.294793    2.080831   -0.714697
H      -0.364602    1.883821    1.046654
H       0.316625   -0.493603    0.856909
H      -1.108356   -0.221959   -0.118317
H      -0.846324   -1.098782   -2.784054
H       2.797716   -0.326366    0.387707
H       5.092192   -0.224435   -0.080442
H       4.586742   -1.725464   -0.908494
H       4.747963   -0.220699   -1.823156
