18

C       0.414099    1.373848   -1.299173
N       0.488248   -0.033883   -0.963659
C       0.023953   -0.533109    0.210474
O      -0.466542    0.124040    1.111241
C       0.135523   -2.037792    0.335509
O       0.752562   -2.768416   -0.730753
C       1.408519   -2.748037    0.553245
C       2.761476   -2.085323    0.604864
O       3.762058   -2.927612    0.057298
H       0.029976    1.898419   -0.423301
H       1.401667    1.772763   -1.553507
H      -0.262114    1.548410   -2.143554
H       0.808930   -0.706225   -1.643236
H      -0.766766   -2.485795    0.748594
H       1.359273   -3.705852    1.072288
H       2.725223   -1.110070    0.102036
H       3.041780   -1.914880    1.649664
H       3.516607   -3.106551   -0.857081
