18

C      -0.021456    1.456086    0.011635
N      -0.000051   -0.006618    0.030713
C      -0.020504   -0.648175   -1.248418
O      -0.053397    0.018398   -2.274089
C       0.001697   -2.090028   -1.191116
C       0.038684   -2.761894   -0.009129
C       0.057059   -2.061958    1.221408
C       0.037368   -0.694041    1.219439
C       0.055642    0.095168    2.497852
H       0.874044    1.867634    0.485748
H      -0.050424    1.752736   -1.034925
H      -0.904958    1.842124    0.527825
H      -0.013070   -2.595629   -2.148330
H       0.054496   -3.847868   -0.002673
H       0.086524   -2.590363    2.164757
H       0.085434   -0.584939    3.350247
H       0.928321    0.754851    2.556609
H      -0.832248    0.729126    2.597649
