23

C      -0.494446    1.343574   -0.042282
C      -0.045422   -0.097953    0.025412
C      -0.607916   -1.001412    1.100086
C       0.855911   -0.627839    1.121802
C       1.830603   -1.625554    0.514962
C       1.166649   -2.037652   -0.815726
C       0.376056   -0.788025   -1.278499
C      -0.780899   -1.115379   -2.223791
O       1.274324    0.141368   -1.906731
H       0.253611    1.961925   -0.543843
H      -1.438515    1.445106   -0.591144
H      -0.658242    1.744366    0.962982
H      -1.250083   -0.524758    1.833478
H      -0.898732   -2.021472    0.869761
H       1.205880    0.028955    1.911410
H       2.785773   -1.126184    0.321145
H       2.032183   -2.485553    1.162924
H       1.891695   -2.340135   -1.577574
H       0.489932   -2.885709   -0.670360
H      -1.521571   -1.756860   -1.737080
H      -1.278496   -0.198958   -2.553791
H      -0.418578   -1.642932   -3.115095
H       1.529713   -0.232123   -2.756622
