19

O       0.011237    1.202552    0.486870
C      -0.029807   -0.008312   -0.243546
C      -1.416751   -0.608255   -0.224401
C      -1.596839   -2.068042   -0.067641
N      -1.778443   -1.125706    1.113294
C      -3.261376   -1.414440    1.070042
C      -3.065606   -2.423071   -0.065806
C      -3.922249   -2.883666   -1.178726
N      -3.629003   -3.764218   -0.025156
H      -0.336103    0.990317    1.361818
H       0.268246    0.232512   -1.269314
H       0.689132   -0.743073    0.151887
H      -2.175615   -0.041656   -0.763701
H      -0.772838   -2.775620   -0.116988
H      -3.584090   -1.889593    1.998480
H      -3.873349   -0.528465    0.871004
H      -4.956095   -2.555559   -1.245967
H      -3.449252   -3.093357   -2.135214
H      -2.925644   -4.454676   -0.279267
