19

C       0.816533    0.846545    0.245779
C      -0.221964   -0.221595   -0.043709
O      -0.911532   -0.672468    0.841446
C      -0.431692   -0.665627   -1.503578
C       0.834805   -0.646708   -2.403679
C       1.382128   -2.053578   -2.274811
O       1.409495   -2.517091   -0.916229
C       0.323873   -2.931712   -1.765139
C      -0.943449   -2.126900   -1.558932
H       1.817754    0.406439    0.184266
H       0.773061    1.665526   -0.479674
H       0.661236    1.230043    1.254730
H      -1.183193    0.030967   -1.895738
H       0.560883   -0.464840   -3.449908
H       1.559925    0.120975   -2.123779
H       2.195413   -2.401641   -2.906209
H       0.286634   -3.996256   -1.979504
H      -1.479439   -2.382426   -0.642979
H      -1.613490   -2.287806   -2.411350
