10

O       0.089901    1.357357   -0.214780
C       0.026159    0.012531    0.208100
C      -1.377053   -0.512135    0.171637
N      -2.021641   -1.079179    1.148114
O      -3.240102   -1.368480    0.629712
N      -3.281682   -0.937848   -0.690742
N      -2.166158   -0.428270   -0.964106
H      -0.218565    1.398191   -1.127056
H       0.666144   -0.642853   -0.401769
H       0.391729   -0.025277    1.236275
