18

O      -0.011597   -0.092820    0.036481
C      -0.022833    1.114386    0.023376
C      -1.323542    1.907368    0.011710
C      -1.525397    2.828811    1.229231
C      -0.402861    3.854824    1.445320
N       0.824924    3.292132    1.989718
C       1.693944    2.425797    1.385845
O       2.727514    2.077101    1.918152
C       1.281676    1.915226   -0.002208
H      -1.331597    2.522191   -0.899533
H      -2.143708    1.189296   -0.060283
H      -2.468239    3.370773    1.092484
H      -1.630454    2.227505    2.139094
H      -0.200515    4.390949    0.506417
H      -0.740731    4.608867    2.160563
H       1.139471    3.612416    2.893100
H       2.085374    1.266425   -0.345783
H       1.179613    2.769707   -0.681858
