22

C       0.080117    1.536837    0.051943
C       0.020423    0.019077   -0.008144
C       0.631266   -0.544732   -1.298427
N       0.978150   -1.975415   -1.243056
C       2.227353   -2.322464   -0.555074
C       0.918627   -2.676268    0.052132
C       0.398712   -4.095851    0.004210
C       0.477357   -1.878292    1.270881
O       0.714865   -0.494044    1.125615
H       1.120933    1.875177    0.054589
H      -0.425043    1.976186   -0.813841
H      -0.402927    1.905316    0.960789
H      -1.032340   -0.307710    0.058660
H      -0.080704   -0.400195   -2.120697
H       1.533752    0.024289   -1.552923
H       2.833961   -3.083103   -1.041740
H       2.785976   -1.512602   -0.089998
H       0.739890   -4.596084   -0.905030
H       0.748552   -4.671459    0.869471
H      -0.697186   -4.113746    0.009373
H      -0.596826   -2.058609    1.454198
H       1.025306   -2.203998    2.161764
