17

O      -0.067387    0.066858    0.069852
C      -0.014464    1.257964    0.028368
O       1.155175    1.934143    0.051798
C       1.079192    3.355985    0.071291
O       0.829397    3.837119    1.384016
C       2.045964    4.577945    1.664677
C       2.229987    5.398695    0.365251
C       2.453998    3.962760   -0.209590
C       3.159030    3.639197    1.149858
H      -0.895837    1.922614   -0.043687
H       0.278249    3.679323   -0.604305
H       1.991749    4.995017    2.667602
H       1.371186    5.976748    0.015707
H       3.140793    5.998826    0.347614
H       2.897514    3.761985   -1.182370
H       4.154203    4.081184    1.210269
H       3.155446    2.607524    1.500987
