14

O       0.069847    1.388885   -0.122772
C       0.103520    0.002777    0.014786
C       0.306469   -0.611776    1.455335
C      -1.073984   -1.249044    1.324037
O      -2.005412   -0.189384    1.075146
C      -1.267639   -0.724074   -0.049800
C      -1.970395   -1.217666   -1.180838
C      -2.516911   -1.622558   -2.172629
H      -0.660997    1.698676    0.427967
H       0.821978   -0.384712   -0.710061
H       1.125124   -1.334288    1.490454
H       0.412726    0.110191    2.268305
H      -1.468452   -2.156796    1.764659
H      -3.009065   -1.982488   -3.042286
