23

C      -0.369458    1.555865   -0.039950
C      -0.053881    0.063921   -0.003501
C       0.499725   -0.591252   -1.277832
C       1.883691   -0.095425   -1.593654
C       1.710039   -1.124998   -0.512486
C       1.203977   -0.492409    0.791551
C       2.145736    0.439148    1.553667
C       1.622400    0.836085    2.929339
O       2.587447    1.682429    3.537418
H       0.484412    2.154989   -0.369786
H      -1.193017    1.750757   -0.736272
H      -0.675806    1.927444    0.943780
H      -0.945512   -0.474069    0.333606
H      -0.102458   -1.094913   -2.025136
H       2.303225   -0.473338   -2.520771
H       2.188856    0.920893   -1.360922
H       2.177969   -2.100354   -0.580841
H       0.864210   -1.280444    1.473252
H       3.112398   -0.061951    1.690737
H       2.351837    1.351786    0.984414
H       0.651060    1.347261    2.834895
H       1.452184   -0.071281    3.533028
H       2.259086    1.938813    4.403992
