13

O       0.039723    0.259720   -0.428949
C       0.281645    1.418273   -0.309563
O       1.141256    1.857881    0.671931
C       1.523302    3.171130    0.691544
N       1.412658    3.932291   -0.302051
C       1.844236    5.323967   -0.200613
C       2.402754    5.767854    1.077675
C       2.858342    6.111714    2.135653
H      -0.130647    2.241549   -0.906266
H       1.941129    3.423142    1.667127
H       2.577987    5.493264   -0.998839
H       0.982204    5.951836   -0.459642
H       3.264548    6.434479    3.062818
