13

O       0.349849    0.319483    0.891208
C       0.263994    1.359479    0.282148
C       1.388521    1.966043   -0.408006
C       2.306634    2.482767   -0.990434
C      -1.012270    2.159000    0.191118
O      -2.204286    1.519486    0.600390
C      -1.728024    2.574453    1.435761
C      -1.263221    2.245640    2.753145
C      -0.899213    2.022717    3.875913
H       3.130446    2.925574   -1.496286
H      -1.095218    2.814493   -0.676001
H      -2.309306    3.493887    1.365045
H      -0.569672    1.803848    4.861898
