23

C       0.432344    1.367553   -0.419833
C       0.067251   -0.085925   -0.105018
C      -1.455658   -0.234124   -0.078957
C       0.760394   -1.155984   -1.020821
C       1.494852   -1.742396    0.202778
C       2.824623   -1.017628    0.568019
C       2.080372   -0.292455    1.727505
O       2.351526    1.047958    2.052118
C       0.716490   -0.764280    1.160508
H       1.505735    1.502010   -0.595927
H      -0.070979    1.692257   -1.338214
H       0.121343    2.044650    0.383355
H      -1.890784    0.032852   -1.049359
H      -1.750994   -1.263863    0.148060
H      -1.902046    0.416585    0.682257
H       0.041835   -1.845221   -1.474071
H       1.405137   -0.765065   -1.815212
H       1.489571   -2.823854    0.336935
H       3.666038   -1.646728    0.867730
H       3.171513   -0.343013   -0.222241
H       2.253432   -0.843079    2.658442
H       2.247441    1.579903    1.258897
H      -0.015867   -1.096964    1.899309
