12

O       0.378117    0.158609   -0.416882
C       0.435131    1.345879   -0.451816
O       0.875584    2.079129    0.603726
C       0.930748    3.495168    0.449873
C       2.339333    3.939704    0.233484
N       3.025736    4.687466    1.047370
O       4.225825    4.830368    0.449195
N       4.215692    4.124569   -0.757673
N       3.084169    3.596699   -0.880790
H       0.136290    1.972901   -1.313270
H       0.309190    3.816514   -0.394942
H       0.544005    3.945961    1.364949
