16

O       0.050425    1.399814   -0.014065
C       0.005332    0.029224   -0.004630
C       0.101064   -0.833368    1.317478
C      -1.394484   -0.539569    1.594271
C      -1.342817   -0.794627    0.067228
C      -0.329101   -1.938712    0.320522
O       0.618222   -2.008951   -0.775711
C       0.855494   -0.688725   -1.008823
N       1.604304   -0.132371   -1.856555
H       0.668807    1.639465   -0.721660
H       0.936229   -0.865509    2.017132
H      -1.937315   -1.271815    2.198481
H      -1.630660    0.480063    1.898624
H      -2.155011   -0.782548   -0.659575
H      -0.628531   -2.933582    0.635511
H       2.098280   -0.800268   -2.447904
