18

C      -0.013175    1.568313   -0.090592
C      -0.048207    0.033229   -0.083720
C       0.764177   -0.544496   -1.210303
O       0.270763   -0.202263   -2.536105
C       0.353777   -1.577731   -2.983941
C       0.968887   -2.015054   -1.655106
O       2.413479   -1.830091   -1.625253
C       2.290263   -0.517778   -1.184045
N       3.162972    0.326607   -0.880372
H       1.010795    1.931352    0.028435
H      -0.404860    1.954625   -1.035404
H      -0.623416    1.969001    0.723516
H       0.345734   -0.352925    0.863929
H      -1.079893   -0.325019   -0.179085
H      -0.643102   -1.989928   -3.180990
H       0.994411   -1.704347   -3.862335
H       0.657723   -2.921211   -1.139684
H       4.108013   -0.038892   -1.012493
