16

C      -0.046750    1.445881   -0.036301
N      -0.011262   -0.005499   -0.027488
C       0.572433   -0.605283    0.949050
C       1.235923    0.020064    2.104491
C       1.808587   -0.721195    3.057149
O       1.828615   -2.087491    3.044122
C       1.225895   -2.707875    1.992177
O       1.313372   -4.042222    2.095024
C       0.622898   -2.059272    0.984058
H       0.956757    1.898173   -0.073767
H      -0.587446    1.783408   -0.924919
H      -0.562861    1.868575    0.840058
H       1.273127    1.096349    2.204338
H       2.314814   -0.341325    3.934802
H       1.792286   -4.251979    2.906197
H       0.166307   -2.624851    0.183726
