14

O      -0.000794   -0.060551    0.202168
C      -0.004952    1.124293    0.127937
C      -1.066702    2.257359    0.016342
C      -0.683493    3.039157    1.280305
O       0.773573    3.033583    1.176549
C       1.010577    2.288834   -0.013829
C      -0.049399    2.908054   -1.003798
C      -0.070046    2.359975   -2.344904
N      -0.076371    1.926329   -3.416570
H      -2.114805    2.089137   -0.213033
H      -1.040921    4.073767    1.289633
H      -0.996945    2.537286    2.201341
H       2.070738    2.202254   -0.231569
H      -0.037976    3.999971   -1.017160
