19

C      -0.088461    1.476303    0.022342
C       0.111325   -0.008193   -0.029223
C       0.007778   -0.873684   -1.278118
C      -0.246648   -2.014734   -0.281620
C       1.071737   -2.204757    0.483552
C       0.764875   -0.826085    1.053262
C       1.307935   -0.271414    2.335346
N      -0.717521   -0.976115    0.787367
H       0.770179    2.000449   -0.413673
H      -0.981173    1.762615   -0.543880
H      -0.217556    1.833109    1.047199
H      -0.894380   -0.619259   -1.842565
H       0.861510   -0.952719   -1.960784
H      -0.892132   -2.855709   -0.527208
H       0.981794   -2.966491    1.263863
H       1.992489   -2.367493   -0.088184
H       2.362368    0.007464    2.223555
H       0.756546    0.614458    2.660173
H       1.239370   -1.016881    3.134782
