21

C       0.078749    1.184484    0.389162
O      -0.015774   -0.078957   -0.247310
C      -1.280727   -0.614800   -0.225521
C      -1.875866   -1.239008    1.024472
C      -1.688451   -2.073326   -0.230535
C      -2.818145   -1.782581   -1.228212
C      -2.395534   -0.271346   -1.223215
O      -0.884697   -3.187297   -0.258072
C      -1.460103   -4.320595    0.370301
H       1.124098    1.494639    0.326719
H      -0.546572    1.939361   -0.108273
H      -0.219667    1.123948    1.445038
H      -1.130204   -1.450137    1.785259
H      -2.861239   -0.964837    1.397608
H      -2.642569   -2.254819   -2.197306
H      -3.836126   -2.006757   -0.894321
H      -3.150189    0.446283   -0.886293
H      -1.998738    0.047247   -2.189673
H      -0.727158   -5.127564    0.303656
H      -1.685297   -4.120872    1.427179
H      -2.385588   -4.638411   -0.130474
