19

C       1.013123    1.497904   -0.301832
C       0.134979    0.318254    0.098046
C      -0.031256   -0.758529   -1.000311
C       0.933548   -1.882348   -0.552016
O       2.284430   -1.574640   -0.902639
C       0.836911   -1.732374    0.977393
O       0.744327   -0.344912    1.218071
C       0.556062   -3.208880   -1.036595
C       0.260889   -4.295362   -1.458402
H       1.982289    1.138292   -0.657087
H       0.535748    2.084969   -1.093895
H       1.177592    2.152462    0.558688
H      -0.852430    0.685779    0.410637
H      -1.054322   -1.142061   -1.029363
H       0.222324   -0.392433   -1.998195
H       2.378495   -1.718058   -1.850645
H      -0.046438   -2.274152    1.347625
H       1.731530   -2.120878    1.469866
H       0.001546   -5.259356   -1.821441
