18

C       0.074299    1.596253    0.138571
C       1.564642    1.828516   -0.055621
C       2.452381    0.808317    0.650202
C       1.848233   -0.074939    1.734408
C       0.449391   -0.611685    1.318017
C       0.001164    0.057500    0.014369
O       0.957489   -0.271048   -1.006750
C       2.042706    0.599462   -0.785419
H      -0.311842    1.941273    1.103021
H      -0.495084    2.088686   -0.656468
H       1.937936    2.820828   -0.277986
H       3.482065    1.113707    0.812663
H       2.524749   -0.910286    1.943123
H       1.778785    0.499125    2.665615
H       0.485694   -1.691588    1.147929
H      -0.292265   -0.432651    2.104051
H      -0.970575   -0.314669   -0.317661
H       2.751677    0.597757   -1.604009
