22

C      -0.126035    1.332155   -0.065819
O       0.150967   -0.049596   -0.066192
C       0.714941   -0.562704    1.118102
C       2.118422   -0.015449    1.382726
C      -0.189101   -0.569490    2.418583
C      -0.071614   -2.102207    2.429419
C       0.016520   -2.990628    3.630830
N      -0.723138   -2.530727    1.168832
C       0.694912   -2.092770    1.149192
H       0.784157    1.949677   -0.065998
H      -0.684355    1.542184   -0.981648
H      -0.743599    1.629021    0.794855
H       2.096867    1.051173    1.625895
H       2.582848   -0.537547    2.224568
H       2.748886   -0.155901    0.498528
H       0.283111   -0.072704    3.269795
H      -1.209042   -0.202929    2.285270
H      -0.949788   -3.058669    4.144925
H       0.317266   -4.005883    3.348819
H       0.748830   -2.610956    4.351701
H      -0.704419   -3.551505    1.154558
H       1.476678   -2.753708    0.790442
