15

C      -0.024717    1.399264   -0.059048
N      -0.008575   -0.045833    0.014502
N      -0.031166   -0.791559   -1.115711
C       0.043477   -2.056814   -0.687530
C       0.122441   -2.131408    0.728782
C       0.088558   -0.813244    1.126447
O       0.132320   -0.199415    2.329442
C       0.033988   -3.145910   -1.595254
C       0.029554   -4.095288   -2.334982
H       0.989870    1.804859   -0.134085
H      -0.590738    1.684874   -0.945776
H      -0.503598    1.801139    0.835215
H       0.186762   -3.012409    1.344900
H       0.147610   -0.870601    3.018685
H       0.023911   -4.923759   -2.998688
