19

C      -0.670497    1.250426    0.221534
C       0.034077   -0.074077   -0.063608
C       1.038505   -0.108414   -1.271069
C       2.144521   -0.581118   -0.307777
C       3.188891   -1.611034   -0.543918
N       3.561210   -0.209239   -0.299053
C       1.200856   -0.451147    0.844012
N       1.390102   -0.629597    2.083703
O       0.200275   -0.436329    2.812610
H       0.051305    2.071077    0.289780
H      -1.379390    1.488296   -0.578719
H      -1.213943    1.201334    1.167742
H      -0.701931   -0.884098   -0.115645
H       0.785503   -0.794236   -2.082776
H       1.225326    0.885560   -1.689585
H       3.447631   -2.296043    0.258497
H       3.278448   -2.017085   -1.549035
H       3.791660    0.248668   -1.178828
H       0.494865   -0.575743    3.718860
