21

C      -0.165226    1.505288   -0.031404
C      -0.038383    0.023052    0.101978
O      -0.827629   -0.784667   -0.792247
C      -1.120199   -1.718493    0.282216
C      -0.204182   -0.971441    1.239319
C       1.154712   -0.755772    0.578464
C       1.871062   -1.770396   -0.254903
C       3.341569   -1.601599   -0.552060
C       2.880465   -2.703263    0.369684
H       0.413377    2.010428    0.747354
H       0.216778    1.835934   -1.004088
H      -1.210584    1.820505    0.046891
H      -2.179907   -1.664242    0.556099
H      -0.860166   -2.751086    0.021125
H      -0.378979   -0.816123    2.296068
H       1.805434   -0.160672    1.218346
H       1.271757   -2.174814   -1.063574
H       3.701535   -1.869004   -1.539458
H       3.854354   -0.752872   -0.110387
H       3.081071   -2.592063    1.430525
H       2.927109   -3.727541    0.015830
