17

C      -0.006993    1.434001   -0.133333
N      -0.010212   -0.017709   -0.127474
C      -1.098091   -0.634746    0.094614
O      -2.284763    0.023967    0.283675
C      -3.327123   -0.696868    0.951669
C      -3.589192   -2.056956    0.312938
C      -2.283530   -2.782154    0.143213
C      -1.136321   -2.100965    0.078458
H       0.980381    1.786317    0.179931
H      -0.172627    1.805562   -1.153629
H      -0.773889    1.881571    0.509647
H      -3.050514   -0.831650    2.006157
H      -4.203794   -0.046726    0.906422
H      -4.277180   -2.626384    0.948786
H      -4.090070   -1.939128   -0.658279
H      -2.291114   -3.865124    0.064435
H      -0.172628   -2.580157   -0.042597
