19

C      -0.064580    1.488089   -0.198628
O       1.137615    2.021476    0.359229
C       1.899441    1.021173    1.018562
O       1.864915    1.209187    2.416622
C       0.537427    1.242931    2.924029
C      -0.227809   -0.065646    2.658609
C       0.065805   -0.690524    1.303139
C       0.004184   -0.021684   -0.056038
C       1.336050   -0.328978    0.577052
H      -0.931723    1.936142    0.305863
H      -0.112366    1.768257   -1.258210
H       2.950992    1.150628    0.749850
H       0.632953    1.411194    3.999515
H       0.006673    2.103336    2.499450
H       0.066068   -0.801492    3.416371
H      -1.302527    0.108573    2.791815
H      -0.199350   -1.743841    1.258430
H      -0.371144   -0.616716   -0.880835
H       2.021627   -1.080665    0.206234
