17

O       0.063745    1.373335   -0.349768
C       0.069865    0.010598    0.043111
C      -1.314099   -0.505470    0.272738
C      -2.314771   -0.165422    1.396305
C      -2.868896   -1.600575    1.210970
C      -3.333142   -2.543121    2.227783
O      -4.221946   -1.991862    1.243400
C      -1.908064   -1.845921    0.063956
O      -2.113221   -0.790200   -0.888588
H      -0.447618    1.429961   -1.164732
H       0.569457   -0.628457   -0.700087
H       0.647101   -0.034599    0.972476
H      -1.859704   -0.000604    2.375914
H      -3.002849    0.646796    1.157180
H      -3.126714   -3.607808    2.123646
H      -3.490083   -2.196479    3.248301
H      -1.483097   -2.773531   -0.303134
