18

C      -0.047138    1.468083   -0.749845
C      -0.065719    0.126217   -0.054258
C       0.884890   -0.941444   -0.487324
N       1.056178   -0.281436    0.814907
C      -1.447023   -0.306077    0.423352
O      -2.447258    0.018108   -0.171456
N      -1.393358   -1.087557    1.565483
C      -2.426899   -1.710409    2.253971
N      -3.637459   -1.725493    1.877533
H       0.931986    1.662557   -1.198336
H      -0.808280    1.488875   -1.532194
H      -0.274118    2.275882   -0.046121
H       0.593606   -1.986451   -0.436017
H       1.574312   -0.697675   -1.291095
H       1.800647    0.409478    0.779636
H      -0.461263   -1.154121    1.957935
H      -2.040208   -2.189203    3.163389
H      -4.195424   -2.247271    2.552035
