19

C       0.075274    1.409850    0.110400
N       0.103469   -0.040958    0.038348
C       0.540380   -0.610154   -1.001901
O       1.041718    0.071408   -2.078848
C       0.813701   -0.513567   -3.369225
C       1.442169   -1.897737   -3.503424
C       1.042522   -2.774408   -2.323992
N       1.939618   -2.692743   -1.166659
C       0.582638   -2.098510   -1.076243
H       0.918355    1.760170    0.718955
H       0.130719    1.907465   -0.864118
H      -0.839549    1.719428    0.625975
H      -0.269055   -0.567838   -3.548900
H       1.240327    0.193935   -4.084005
H       1.113742   -2.343348   -4.448450
H       2.532432   -1.813610   -3.531936
H       0.598074   -3.738990   -2.555405
H       1.945817   -3.572112   -0.656073
H      -0.143984   -2.584313   -0.434923
