14

C       0.142483    1.442573    0.060808
C      -0.061372   -0.027340   -0.014679
C      -1.165869   -0.812754   -0.173773
C      -0.710737   -2.163292   -0.166593
C       0.646712   -2.115165   -0.003020
O       1.048486   -0.804156    0.090576
C       1.630259   -3.114340    0.079504
C       2.465152   -3.980466    0.148911
H       0.805425    1.795619   -0.737069
H      -0.816432    1.955857   -0.036401
H       0.595293    1.734836    1.014900
H      -2.181441   -0.465522   -0.282752
H      -1.300289   -3.060343   -0.268143
H       3.200178   -4.744114    0.210001
