18

O       0.003794   -0.106887    0.038233
C      -0.014118    1.109248   -0.080200
N      -1.218961    1.774930   -0.162344
C      -1.555464    3.183213   -0.096355
C      -0.780747    4.019215    0.913270
N      -0.017753    3.329016    1.960383
C       0.699155    4.039158    0.894213
C       1.469862    3.223981   -0.135314
N       1.169840    1.807120   -0.193099
H      -1.968385    1.128008    0.017024
H      -1.449929    3.667688   -1.080198
H      -2.621337    3.231409    0.147075
H      -1.280943    4.951565    1.171036
H      -0.013853    3.864202    2.823262
H       1.180521    4.984736    1.139338
H       1.326012    3.705090   -1.115947
H       2.539964    3.300964    0.080604
H       1.940790    1.180687   -0.033300
