21

C      -0.314381    1.612201   -0.028060
C      -0.003973    0.124422    0.021942
C      -1.250561   -0.703345   -0.291044
O       1.072602   -0.273236   -0.906609
C       1.717501   -1.073162    0.117246
C       2.967694   -0.467615    0.794656
C       2.869314    1.021665    0.822901
C       2.036697    0.233246    1.805200
C       0.803608   -0.484061    1.199665
H      -0.572740    1.903209   -1.051894
H      -1.175784    1.834415    0.610643
H       0.520087    2.227270    0.307299
H      -1.619662   -0.464667   -1.293495
H      -1.027390   -1.773793   -0.258283
H      -2.048338   -0.495215    0.430300
H       1.762750   -2.134666   -0.137095
H       3.894967   -1.001251    0.964435
H       3.716354    1.525306    1.278586
H       2.439245    1.540960   -0.023356
H       2.181486    0.362899    2.870972
H       0.265579   -1.114139    1.907934
