23

C      -0.093096    1.516778    0.061105
C      -0.010172   -0.003783   -0.015630
C       0.762924   -0.532348   -1.238750
C       1.826500   -1.159066   -0.320966
C       1.077820   -0.656468    0.922340
O       1.809597    0.224405    1.746345
C       0.967593   -2.026503   -1.213604
C      -0.065916   -3.002060   -0.677465
C       1.707260   -2.564765   -2.430256
H       0.874427    1.992727   -0.136336
H      -0.794127    1.896598   -0.689503
H      -0.433190    1.846638    1.046648
H      -1.017197   -0.419945    0.105333
H       0.903208    0.032979   -2.155351
H       2.908987   -1.160990   -0.407462
H       0.705861   -1.428208    1.603267
H       2.253942    0.865481    1.181506
H      -0.616529   -2.618003    0.183511
H      -0.799934   -3.246435   -1.454302
H       0.412724   -3.939681   -0.371742
H       2.235018   -3.494585   -2.189289
H       1.009023   -2.781354   -3.247003
H       2.445557   -1.847084   -2.801573
