18

C       0.033883    1.557909   -0.183175
C      -0.023241    0.042963    0.069629
C      -1.413228   -0.507957   -0.015508
C      -1.926997   -1.415925   -0.907635
N      -3.254837   -1.580773   -0.568663
C      -4.216426   -2.445498   -1.218684
C      -3.477008   -0.769535    0.503538
N      -2.400189   -0.111352    0.864225
H       1.053696    1.938220   -0.066073
H      -0.306512    1.799113   -1.195506
H      -0.615054    2.083419    0.522390
H       0.617325   -0.482631   -0.647813
H       0.384020   -0.167353    1.066558
H      -1.485110   -1.951297   -1.732559
H      -3.904730   -3.493339   -1.161970
H      -5.181102   -2.343027   -0.717744
H      -4.341059   -2.172836   -2.271466
H      -4.448077   -0.709040    0.974492
