22

C       1.674711   -4.039403    1.534759
C       1.049250   -2.833562    0.864920
N       0.386033   -1.747388    1.595617
C       0.301024   -1.756745    3.046723
C       1.641065   -1.454695    0.901384
C       2.930602   -1.166278    1.646757
C       1.441137   -0.571014   -0.337666
C       1.391215    0.854445   -0.028059
C       1.356846    2.024540    0.246587
H       2.272889   -3.791549    2.412636
H       0.899192   -4.747190    1.848338
H       2.326791   -4.561387    0.826193
H       0.508826   -3.104812   -0.044350
H       1.160883   -2.188319    3.578157
H       0.174133   -0.726996    3.395069
H      -0.590073   -2.320885    3.341320
H       3.790694   -1.339270    0.990094
H       2.960210   -0.117275    1.957556
H       3.063191   -1.786059    2.533596
H       2.252102   -0.761406   -1.054220
H       0.506804   -0.868584   -0.825230
H       1.316856    3.059758    0.478344
