20

C       0.242048    1.530982    0.223021
C      -0.087665    0.056018   -0.046732
C       0.542210   -0.462415   -1.296196
C       0.923325   -1.797495   -1.813981
C       0.342611   -1.524381   -3.198127
C       0.501445   -0.023858   -2.819970
O      -0.339745    0.961675   -3.312316
C       2.028631    0.127782   -2.697476
N       1.990271   -0.767588   -1.494246
H       1.321419    1.670721    0.337267
H      -0.098343    2.163180   -0.602716
H      -0.243738    1.878384    1.139721
H       0.252667   -0.566424    0.789804
H      -1.175213   -0.076056   -0.114172
H       1.007547   -2.740436   -1.288941
H       0.873590   -1.890228   -4.084731
H      -0.711714   -1.810049   -3.240912
H      -0.314158    0.942859   -4.275628
H       2.663044   -0.217667   -3.523409
H       2.333128    1.127565   -2.378703
