22

C      -0.004426    1.589454    0.010943
C       0.005332    0.049924    0.053045
C       0.805213   -0.456092    1.268030
C      -1.392476   -0.516418    0.031806
C      -1.950948   -1.332026   -0.935858
C      -1.401914   -1.895818   -2.206376
N      -3.244791   -1.604882   -0.547197
C      -3.524897   -0.984085    0.643827
C      -2.398475   -0.302534    1.027679
H       1.015890    1.988529   -0.009782
H      -0.535028    1.956152   -0.872799
H      -0.506399    2.001284    0.893298
H       0.525992   -0.297911   -0.848325
H       0.338417   -0.133307    2.205075
H       0.852402   -1.549072    1.281274
H       1.829621   -0.067352    1.253717
H      -1.407838   -2.993573   -2.208277
H      -1.971282   -1.566319   -3.085204
H      -0.367889   -1.577095   -2.351985
H      -3.886803   -2.178854   -1.065196
H      -4.492764   -1.080916    1.108973
H      -2.297867    0.289078    1.925280
