23

C       0.143992    1.675635   -0.018004
C      -0.032113    0.153873    0.047959
C       0.375315   -0.506219   -1.297079
C       0.565699   -2.033403   -1.230960
C      -0.501670   -2.765453   -0.435597
C      -0.095095   -3.910662    0.460937
C      -0.528296   -2.594168    1.069927
C       0.452444   -1.669646    1.709253
C       0.687681   -0.440982    1.243419
H       1.200885    1.941743   -0.139077
H      -0.404266    2.100736   -0.865195
H      -0.219449    2.158927    0.894860
H      -1.101213   -0.051719    0.184748
H      -0.391076   -0.250470   -2.039818
H       1.308742   -0.054978   -1.657743
H       0.614534   -2.439642   -2.248681
H       1.538329   -2.243341   -0.775287
H      -1.468618   -2.851928   -0.925127
H      -0.760539   -4.761281    0.561821
H       0.960196   -4.163790    0.496206
H      -1.511026   -2.614759    1.539766
H       0.984555   -2.027511    2.589294
H       1.426686    0.186313    1.739560
