21

C       0.688289    1.493753   -0.137385
O       0.947248    0.114913   -0.245436
C      -0.081583   -0.586897   -0.916218
C       0.232496   -2.047484   -0.907980
C       0.695229   -2.833976    0.317402
O       1.600601   -3.637828   -0.489042
C       1.272887   -2.867213   -1.646820
C      -0.175349   -3.013979   -2.012294
C      -0.964791   -4.287096   -1.804649
H       0.602060    1.973315   -1.125666
H      -0.240657    1.694238    0.420398
H       1.526806    1.943232    0.399874
H      -1.050712   -0.396224   -0.419498
H      -0.183100   -0.226976   -1.954558
H       1.259702   -2.212798    1.018719
H      -0.041233   -3.442869    0.854865
H       2.079957   -2.598615   -2.319453
H      -0.416063   -2.471931   -2.926273
H      -0.531974   -4.884949   -0.999186
H      -2.012078   -4.078755   -1.561111
H      -0.947554   -4.898499   -2.712915
