20

C      -0.399325    1.440476   -0.030073
C       0.040155   -0.020918   -0.046369
C       1.071521   -0.398605   -1.121329
C       1.606857   -1.719108   -0.578137
O       1.681747   -1.535210    0.836732
C       0.734168   -0.548424    1.260541
C       1.495700    0.505478    2.073827
C      -0.272867   -1.199530    2.129352
N      -1.071966   -1.690920    2.804505
H       0.449648    2.120937    0.083087
H      -0.901805    1.690077   -0.969461
H      -1.105570    1.636699    0.782859
H      -0.847009   -0.644021   -0.205611
H       0.625049   -0.490327   -2.114588
H       1.870551    0.349768   -1.172841
H       0.930450   -2.551552   -0.822674
H       2.609975   -1.976591   -0.928195
H       2.207171    1.026874    1.428614
H       0.817420    1.233689    2.525080
H       2.053833    0.007119    2.869413
