19

C      -0.149641    1.570089    0.074180
C      -0.009520    0.059087    0.009921
O      -1.293918   -0.463244   -0.212534
C       1.122703   -0.572755   -0.854148
C       2.125034   -0.247300    0.266633
C       0.876320   -0.597703    1.145418
O       0.693900   -0.203851    2.462421
C       0.711555   -2.080099    0.771972
O       0.858236   -1.989630   -0.669333
H       0.785584    2.084502    0.295922
H      -0.544442    1.944416   -0.874544
H      -0.866768    1.820933    0.860815
H      -1.167270   -1.320251   -0.640960
H       1.279117   -0.365139   -1.910677
H       2.994649   -0.903965    0.337632
H       2.420877    0.798300    0.317371
H       1.315615   -0.680463    3.023655
H       1.490015   -2.728788    1.191998
H      -0.274886   -2.474572    1.035052
