19

O      -0.612651    1.525497   -1.256251
C      -0.761980    0.139745   -1.300140
C      -1.515045   -0.378008   -0.077855
O      -1.833601    0.416843    0.785785
C      -1.797758   -1.853859   -0.030201
C      -2.449151   -2.522047    1.217541
C      -3.807117   -1.864996    0.819551
C      -3.198715   -2.408036   -0.504264
C      -2.838668   -3.702716    0.278416
H      -0.999383    1.788336   -0.404500
H      -1.306198   -0.177786   -2.205365
H       0.215304   -0.372654   -1.336755
H      -0.954798   -2.400487   -0.469176
H      -2.009431   -2.582288    2.212823
H      -4.704915   -2.380842    1.169605
H      -3.888509   -0.786781    0.939025
H      -3.608826   -2.332561   -1.512312
H      -2.023534   -4.313004   -0.120196
H      -3.682362   -4.317416    0.601255
