16

O      -0.155956    0.031283    0.202829
C      -0.016712    1.217224    0.023289
C       1.273447    1.909519   -0.004691
N       1.409193    3.354968    0.292379
C       1.722070    2.905777   -1.056835
C       3.142794    2.334004   -1.032780
C       2.676748    1.278816    0.050224
C       3.364934    1.241150    1.324316
C       3.951059    1.205878    2.372832
H      -0.889242    1.888528   -0.166968
H       0.474965    3.767262    0.293650
H       1.163302    3.260446   -1.914689
H       3.438855    1.858522   -1.968536
H       3.909652    3.037335   -0.705621
H       2.632574    0.279039   -0.389806
H       4.458528    1.176838    3.305073
