19

C      -0.219113    1.409609   -0.133603
O      -0.009203    0.016229   -0.031125
C       0.761327   -0.533598   -1.067922
C       0.050140   -0.656632   -2.443758
O       0.005447   -2.094964   -2.351247
C       0.733316   -2.080907   -1.091427
C       2.172149   -2.486313   -1.219569
C       2.980863   -1.425394   -1.222521
C       2.249842   -0.110673   -1.069789
H       0.721687    1.976551   -0.085233
H      -0.738696    1.679937   -1.064726
H      -0.845989    1.699856    0.712434
H      -0.955569   -0.221225   -2.474784
H       0.625122   -0.315743   -3.314028
H       0.167954   -2.586803   -0.302402
H       2.485827   -3.519242   -1.315206
H       4.061523   -1.469361   -1.313365
H       2.497193    0.595242   -1.872379
H       2.506415    0.381491   -0.122780
