18

C      -0.011053    0.924220    1.109446
C      -0.131104   -0.026444   -0.069054
O      -1.373010   -0.697814    0.018883
C      -1.594039   -1.605873   -1.028128
C      -2.943859   -2.303593   -0.794181
O      -3.300789   -3.071967   -1.939014
C      -2.938399   -3.111276    0.426160
C      -2.911703   -3.827110    1.391409
H       0.943656    1.457291    1.072891
H      -0.820652    1.659295    1.093496
H      -0.067075    0.373381    2.052451
H      -0.065549    0.525606   -1.021912
H       0.694286   -0.758169   -0.063805
H      -1.641402   -1.098022   -2.004495
H      -0.792371   -2.362530   -1.079728
H      -3.708237   -1.522713   -0.708485
H      -2.833441   -3.912350   -1.880953
H      -2.901581   -4.443436    2.256327
