23

C       0.181499    1.597845   -0.117094
C      -0.199114    0.124838    0.076115
C       0.533311   -0.496346    1.251753
C       0.738256   -1.996009    1.426543
C       0.223724   -2.996132    0.426606
O       0.971390   -4.202669    0.594091
C       1.904908   -1.084753    1.090530
O       2.432338   -1.090491   -0.197612
C       3.444166   -2.071615   -0.371907
H       1.250266    1.692063   -0.331409
H      -0.373133    2.043702   -0.948798
H      -0.034947    2.186789    0.781469
H      -1.281539    0.039258    0.236884
H       0.029861   -0.422767   -0.841357
H       0.378768    0.045019    2.183024
H       0.701028   -2.365134    2.448286
H      -0.847356   -3.181991    0.602857
H       0.333266   -2.610573   -0.594336
H       0.616060   -4.856472   -0.015880
H       2.647435   -0.905387    1.870241
H       4.299886   -1.880054    0.293299
H       3.058407   -3.078601   -0.172905
H       3.782708   -1.998767   -1.408465
