16

C      -0.011833    1.404038   -0.005633
N       0.032361   -0.047955   -0.032311
C       0.579315   -0.637791    0.940779
N       0.726229   -2.001192    1.110327
C       1.406937   -2.269624    2.299870
C       1.725468   -3.650245    2.750373
C       1.653344   -1.076835    2.856829
O       1.156488   -0.058179    2.056339
H       0.976435    1.858319    0.155301
H      -0.397936    1.765092   -0.962666
H      -0.673230    1.785778    0.785803
H       0.430130   -2.662261    0.415609
H       2.361001   -4.172907    2.025533
H       2.254352   -3.622627    3.705349
H       0.816370   -4.248940    2.882023
H       2.137566   -0.784159    3.771376
