18

C      -0.065279    1.570282    0.116708
C       0.011267    0.035624    0.042071
N       0.663750   -0.461755    1.256473
C      -1.354594   -0.524646    0.014161
N      -2.411592   -0.990018    0.009367
C       0.731595   -0.434046   -1.283278
N       0.035640    0.079555   -2.465916
C       2.158620   -0.090260   -1.230320
C       3.318907    0.229707   -1.215502
H       0.946664    1.986112    0.096970
H      -0.635323    1.974231   -0.721831
H      -0.547978    1.865310    1.049606
H       0.690434   -1.477851    1.254036
H       1.628225   -0.139680    1.260558
H       0.638589   -1.526345   -1.303024
H       0.353169    1.020847   -2.674771
H       0.263814   -0.486965   -3.275987
H       4.347230    0.497330   -1.214272
