19

C      -0.340916    0.867689   -0.650449
C      -0.272721   -0.489169    0.051709
N       0.664989   -0.504606    1.191663
C       0.243449   -0.254176    2.487638
C      -1.237763    0.007465    2.705663
O       0.997242   -0.243449    3.452188
C       2.034426   -0.742883    0.807844
N       2.934974   -0.788539    1.809146
O       2.305853   -0.894712   -0.368706
H       0.642329    1.130665   -1.045705
H      -1.046829    0.821148   -1.485661
H      -0.669704    1.661642    0.027993
H      -1.255071   -0.798403    0.406993
H       0.081114   -1.243424   -0.650114
H      -1.826189   -0.898610    2.528425
H      -1.358574    0.304745    3.746681
H      -1.627447    0.792001    2.052926
H       2.637717   -0.615103    2.761252
H       3.893707   -0.920524    1.538643
