19

C       0.052970    1.507247   -0.005384
C       0.112285    0.004733   -0.031934
C      -0.804669   -0.859743    0.805259
C       0.679576   -0.993589    0.980661
C       1.237539   -1.872809   -0.136977
C       0.679077   -0.852624   -1.194166
O      -0.214990   -1.285501   -2.193922
C       1.787690   -0.123830   -1.938219
O       2.887426    0.086040   -1.496015
H       1.024312    1.950983   -0.246217
H      -0.682126    1.889678   -0.723561
H      -0.238965    1.865392    0.986933
H      -1.336257   -0.315828    1.579904
H      -1.380767   -1.683686    0.384862
H       1.176233   -0.778691    1.918262
H       2.327548   -1.906746   -0.169183
H       0.825850   -2.884062   -0.211842
H      -1.056175   -1.495691   -1.776214
H       1.478103    0.220846   -2.948637
