19

C       0.456101    1.371726   -0.162320
C       0.369315   -0.157950   -0.016076
C       1.169747   -0.829946   -1.054080
N       1.814827   -1.338031   -1.867324
N       0.755878   -0.636585    1.311781
C       2.140875   -0.469352    1.728600
C      -0.256560   -1.090308    2.133816
C       0.136941   -1.534772    3.532232
O      -1.414934   -1.137517    1.755970
H       1.478558    1.732189   -0.023038
H       0.122179    1.674081   -1.158058
H      -0.192434    1.838972    0.582743
H      -0.672857   -0.468310   -0.134448
H       2.340483    0.531244    2.133619
H       2.405265   -1.206540    2.485761
H       2.798449   -0.632102    0.870037
H       0.651419   -0.743314    4.085206
H      -0.778369   -1.805672    4.056652
H       0.799956   -2.405451    3.502118
