16

C       0.232083    1.392610    0.224153
O       1.160602    1.918605   -0.697754
C       2.012877    0.841231   -1.057714
C       3.292676    0.708315   -0.203952
O       3.413670   -0.673665    0.098137
C       2.100048   -1.160545    0.328598
C       1.197976   -0.435721   -0.693830
O      -0.023793    0.062650   -0.168867
H       0.639832    1.424877    1.250501
H      -0.695159    1.969588    0.172388
H       2.233007    0.934066   -2.122463
H       4.202553    1.018254   -0.722206
H       3.183168    1.317173    0.707898
H       2.119632   -2.245705    0.207886
H       1.751188   -0.926759    1.347327
H       0.957866   -1.064071   -1.553067
