19

C      -0.089533    1.604561    0.074914
C      -0.004982    0.089421    0.029216
O      -1.318745   -0.475693    0.091530
C       0.807010   -0.652858   -1.089761
C       2.177070   -0.001374   -0.916607
O       2.277788   -0.000101    0.539280
C       1.054774   -0.641272    0.923652
C       0.988414   -1.847111   -0.069696
O      -0.018838   -2.801038    0.048256
H       0.896001    2.059570    0.180132
H      -0.576318    1.994576   -0.824497
H      -0.687177    1.919813    0.939698
H      -1.737200   -0.157135    0.899296
H       0.411752   -0.785948   -2.096387
H       2.992496   -0.592487   -1.348000
H       2.246900    1.024371   -1.294702
H       0.991645   -0.724948    2.009030
H       1.936162   -2.384861   -0.156997
H      -0.853315   -2.311859    0.081915
