18

N       0.780947   -0.785861    0.909739
C       0.364069    0.192123    0.455984
C      -0.190366    1.429319   -0.140016
C      -1.097531    2.183211    0.880552
C      -0.316024    3.339011    1.522877
C       0.156865    4.298670    0.392559
C       1.306577    3.283347    0.182942
C       1.179023    2.931083    1.688647
O       0.864352    2.222052   -0.669833
H      -0.787516    1.110383   -1.000743
H      -1.977276    2.575764    0.360498
H      -1.452274    1.473521    1.633403
H      -0.850248    3.755542    2.378740
H      -0.509120    4.474570   -0.456312
H       0.521057    5.251013    0.786105
H       2.262880    3.608173   -0.228047
H       1.726146    3.654927    2.296793
H       1.430025    1.920986    2.016675
