12

C       0.123191   -3.744227   -0.019852
C       0.066750   -2.537383   -0.012427
C       0.005214   -1.182677   -0.004121
C      -0.056078    0.028890    0.003394
C      -0.126971    1.427903    0.012061
C      -1.181397    2.301067    0.031177
C      -0.558673    3.571397    0.029721
N       0.750427    3.480745    0.011458
O       1.035930    2.128837    0.000131
H       0.173633   -4.805184   -0.026392
H      -2.230404    2.060416    0.044087
H      -1.017946    4.549657    0.041339
