19

O      -0.168127    0.039172   -0.266512
C      -0.038172    1.226677   -0.053617
N       1.154451    1.852801    0.132595
C       2.416809    1.167675    0.042104
C       2.955732    0.506577   -1.256670
N       4.322847    0.670575   -0.620557
C       3.754658    1.937527   -0.012925
C       4.173486   -0.261817    0.544007
C       2.744070    0.072062    1.080992
H      -0.892892    1.929445    0.010708
H       1.154758    2.854747    0.241150
H       2.660854   -0.519351   -1.483632
H       2.868630    1.142163   -2.140557
H       3.773103    2.746218   -0.748599
H       4.220752    2.258633    0.923684
H       4.273940   -1.292278    0.195897
H       4.965122   -0.064991    1.270977
H       2.742389    0.463683    2.102242
H       2.039622   -0.757839    1.020251
