16

N       0.089937    1.275953    0.010415
C       0.084542    0.016212    0.002438
O      -1.092077   -0.648371   -0.004621
C      -1.015598   -2.069561   -0.074469
C      -2.454611   -2.611974    0.045378
C      -3.320271   -2.100279   -1.118770
O      -3.986475   -2.798746   -1.831161
C      -2.451453   -4.061144    0.166682
C      -2.413324   -5.257069    0.264448
H       1.046734    1.622552    0.025845
H       0.960945   -0.646372    0.006668
H      -0.568576   -2.388534   -1.024499
H      -0.408312   -2.467780    0.746493
H      -2.879219   -2.154623    0.952321
H      -3.275667   -0.999590   -1.240352
H      -2.400310   -6.315882    0.348176
