14

N       0.291887    1.198914   -0.441238
C       0.142628    0.017554   -0.016743
N      -1.103317   -0.644054   -0.059991
C      -1.110143   -2.049869    0.032696
N      -0.029797   -2.711970    0.081847
C      -2.364241   -0.012766   -0.170972
O      -3.365931   -0.661382   -0.392333
C      -2.441344    1.408474    0.059895
C      -2.716417    2.557211    0.283452
H       1.255098    1.499579   -0.297920
H       0.912162   -0.638442    0.390028
H      -2.125689   -2.441161    0.054433
H      -0.232648   -3.705004    0.177232
H      -2.912600    3.584541    0.472016
