12

N       0.035691    1.412446    0.167711
C       0.022384    0.031525    0.041202
C      -1.057777   -0.817423    0.005354
O      -0.613636   -2.109497   -0.040298
N       0.758563   -2.112336   -0.046646
C       1.133102   -0.856533    0.006503
C      -2.434682   -0.557091    0.009942
C      -3.609612   -0.286659    0.008093
H       0.796037    1.868289   -0.316951
H      -0.849626    1.846036   -0.058268
H       2.186899   -0.615142    0.018825
H      -4.647853   -0.063127    0.014169
