20

O       0.181176    1.127749   -0.380002
C       0.181624   -0.295651   -0.359090
C      -1.267972   -0.728946   -0.215512
C      -1.548969   -2.223853    0.113358
C      -1.223172   -1.854584    1.608328
C      -1.937921   -0.537872    1.178657
N      -3.345561   -1.061551    1.084982
C      -3.930407   -1.157368   -0.264507
C      -3.080662   -2.266653    0.239932
H       1.086266    1.426671   -0.507484
H       0.580596   -0.703621   -1.302687
H       0.819687   -0.673488    0.450626
H      -1.786734   -0.302118   -1.074572
H      -1.060240   -3.043307   -0.414959
H      -1.724863   -2.435076    2.385544
H      -0.162241   -1.754629    1.833446
H      -1.872068    0.394638    1.736031
H      -5.007282   -1.303427   -0.236344
H      -3.606385   -0.505943   -1.066949
H      -3.537156   -3.202293    0.554078
