10

F      -0.014818    0.099165   -0.276264
C      -0.033256    1.384834   -0.030028
N      -1.161581    1.952302    0.094764
O      -1.139383    3.316410    0.354939
C       0.029419    4.041164    0.476347
N       0.042635    5.266906    0.711065
O       1.212727    3.375440    0.331972
C       1.294685    2.037340    0.075169
O       2.343451    1.489889   -0.044808
H      -0.900309    5.639580    0.796328
