17

C       0.007071    1.468840    0.055808
C      -0.028868   -0.035265   -0.044439
C       0.797520   -0.684467   -1.175135
O       1.049536   -2.001280   -0.658786
C       0.514302   -1.978271    0.669140
O       0.632105   -0.649388    1.100943
C      -1.009343   -2.127364    0.490189
O      -1.702826   -3.086655    0.678201
C      -1.411001   -0.723897   -0.004992
H       1.038849    1.823536    0.130378
H      -0.453593    1.920920   -0.827798
H      -0.541016    1.808032    0.938961
H       0.254188   -0.750607   -2.123242
H       1.747325   -0.161697   -1.333559
H       1.031287   -2.686683    1.312700
H      -2.065907   -0.244900    0.729107
H      -1.935455   -0.769513   -0.962325
