15

O      -0.693218    1.138241   -0.057680
C      -0.009505   -0.035883   -0.051058
C       1.263837   -0.200396   -0.494491
O       1.627473   -1.525818   -0.332805
C       0.566886   -2.159493    0.210281
N       0.777126   -3.506935    0.434941
C      -0.120745   -4.393529    0.973797
N      -1.294707   -4.056328    1.340749
C      -0.479924   -1.312139    0.414239
H      -1.569011    0.982291    0.306985
H       2.003787    0.451104   -0.920716
H       1.685728   -3.849304    0.168666
H       0.306782   -5.400091    1.039561
H      -1.789832   -4.864229    1.709958
H      -1.433950   -1.577584    0.834152
