20

C       0.005163    1.555564    0.031574
C       0.006080    0.026849    0.100807
C      -1.401457   -0.559683   -0.068077
N      -1.434005   -2.009537   -0.013140
C      -1.577920   -2.860081   -1.058449
N      -1.522939   -4.125368   -0.692034
C      -1.323882   -4.097794    0.664955
N      -1.158267   -5.292105    1.373809
C      -1.261591   -2.799553    1.117163
H       1.015494    1.955013    0.156301
H      -0.375894    1.911131   -0.932278
H      -0.623559    1.990420    0.816548
H       0.655357   -0.389853   -0.677763
H       0.419352   -0.306781    1.059405
H      -2.069754   -0.161909    0.705490
H      -1.819312   -0.259546   -1.034828
H      -1.729539   -2.502636   -2.066650
H      -1.530887   -6.069162    0.843009
H      -1.568257   -5.272911    2.297970
H      -1.118217   -2.370570    2.094312
