23

C       0.742673   -0.892639    1.421396
C       0.107597   -0.166862    0.226531
C      -1.336202   -0.612805   -0.059813
C      -2.345100    0.098410    0.855445
C      -2.621559    1.555477    0.461125
C      -1.801823   -0.834644   -1.543209
C      -0.884980   -2.075682   -1.676254
C      -1.634761   -2.133312   -0.327010
O      -2.867297   -1.740413   -1.051626
H       1.741621   -0.498692    1.632138
H       0.144293   -0.777697    2.330763
H       0.843562   -1.965789    1.226283
H       0.105390    0.911399    0.422578
H       0.747158   -0.299937   -0.650225
H      -3.286000   -0.454192    0.841001
H      -1.969890    0.067212    1.886018
H      -1.713751    2.168019    0.457490
H      -3.065789    1.614310   -0.537933
H      -3.324049    2.018027    1.161352
H      -2.083944   -0.101610   -2.301088
H      -1.233856   -2.803925   -2.408531
H       0.198332   -1.956092   -1.688542
H      -1.719358   -2.956978    0.384236
