15

O       0.036119    1.393394   -0.100436
C       0.081896   -0.031978   -0.117405
C      -1.345268   -0.550644   -0.024297
O      -2.154022    0.007670   -1.028292
C      -1.627130   -2.054200    0.131974
O      -0.990365   -2.443944    1.341960
C      -2.328008   -1.893263    1.432720
C      -2.066673   -0.391290    1.377185
O      -2.371788    0.562523    2.030799
H      -0.293275    1.664484    0.765808
H       0.526185   -0.310103   -1.078905
H       0.700018   -0.440488    0.690125
H      -1.855403    0.925212   -1.113627
H      -1.799761   -2.793450   -0.639918
H      -3.086202   -2.496283    1.917120
