12

N       0.064091    1.093025   -0.206762
C      -0.196164   -0.099858    0.088746
O      -0.465223   -0.986076   -0.908882
C      -0.789388   -2.291560   -0.526611
C      -2.197299   -2.407188    0.049425
O      -2.899271   -1.475206    0.332580
C      -2.633934   -3.802448    0.266532
N      -2.941178   -4.905164    0.429341
H       0.259258    1.632066    0.633977
H      -0.219274   -0.547930    1.090350
H      -0.718260   -2.921764   -1.419452
H      -0.088179   -2.709591    0.214394
