17

C       0.038941    1.609130    0.039299
C       0.064294    0.078177   -0.046277
C       0.809173   -0.547980    1.148148
N       0.801655   -1.995827    1.043689
O      -1.283041   -0.439567    0.063400
C      -2.119956   -0.396390   -1.003546
O      -3.262014   -0.725863   -0.911266
C       0.699955   -0.349824   -1.310262
N       1.216969   -0.615885   -2.308515
H       1.056391    2.008410    0.032417
H      -0.502914    2.039075   -0.806270
H      -0.459412    1.907828    0.964575
H       1.844129   -0.192929    1.122857
H       0.337171   -0.138228    2.056112
H       1.432223   -2.407455    1.721363
H      -0.128491   -2.354901    1.229035
H      -1.635212   -0.050565   -1.931966
