19

C       0.100024    1.595427    0.032190
C       0.028687    0.097106    0.062140
C      -0.876910   -0.688871    0.968336
C       0.615345   -0.892793    1.060857
C       1.236222   -1.707605   -0.102282
C       0.289513   -2.223610   -1.172895
C      -0.976494   -2.897089   -1.051770
C      -1.996410   -3.536713   -1.045133
C       0.632514   -0.743557   -1.105062
H       1.096537    1.945296   -0.263475
H      -0.621743    2.015031   -0.680187
H      -0.123147    2.017152    1.017468
H      -1.278032   -0.099740    1.789576
H      -1.547491   -1.457620    0.611999
H       1.169174   -0.683506    1.967445
H       2.252149   -2.080936   -0.060995
H       0.880164   -2.677042   -1.970224
H      -2.908706   -4.078538   -1.009369
H       1.113569   -0.266198   -1.950906
