19

C       0.285483    1.497476   -0.266987
C       0.046060    0.047965    0.105728
O       0.597162   -0.871185   -0.870884
C       1.358830   -1.577019    0.146232
C       2.838205   -1.328227    0.081387
C       3.222626   -0.434723    0.994552
C       2.082656    0.074550    1.847973
C       0.844107   -0.639910    1.260299
O       0.049730   -1.294268    2.222793
H       1.352013    1.708964   -0.382645
H      -0.205693    1.718174   -1.219973
H      -0.131672    2.171069    0.490309
H      -1.027655   -0.143044    0.240256
H       1.063508   -2.629772    0.205647
H       3.488064   -1.818108   -0.634448
H       4.242448   -0.092082    1.137982
H       2.206510   -0.213574    2.899967
H       2.007086    1.168449    1.824600
H      -0.278921   -0.634684    2.843314
