25

C      -0.097476    0.818277   -2.075754
C       0.038740   -0.303974   -1.069201
C       1.338860   -0.620653   -0.350506
C       2.615621    0.165293   -0.562405
C       0.178059   -0.044133    0.412118
C       0.073145    1.327249    1.098749
C      -1.034382    0.732438    2.014840
C      -0.649336   -0.700038    1.538152
C      -1.769013   -1.667097    1.183380
H       0.488217    1.698732   -1.798983
H       0.237208    0.500190   -3.069691
H      -1.142171    1.137619   -2.166722
H      -0.553279   -1.180808   -1.324661
H       1.509604   -1.683494   -0.182900
H       2.426923    1.236017   -0.679208
H       3.290668    0.047265    0.293050
H       3.152605   -0.175487   -1.454971
H       0.979741    1.598397    1.649988
H      -0.215873    2.179559    0.478054
H      -0.958019    0.937230    3.085431
H      -2.037671    1.012565    1.679361
H       0.023106   -1.171900    2.266314
H      -2.463265   -1.220851    0.462913
H      -1.380370   -2.593004    0.743553
H      -2.343190   -1.943651    2.074831
