18

C      -0.017281    1.552943    0.089267
C       1.371724    2.110242   -0.104748
C       2.296107    1.440807   -0.793908
C       1.969422    0.172390   -1.481045
C       1.878131   -1.188692   -0.828665
C       1.857424   -1.267363    0.652101
C       0.806897   -0.601706    1.127081
C      -0.000540    0.015325   -0.000709
N       0.660330   -0.458471   -1.257992
H      -0.413594    1.845909    1.068138
H      -0.709640    1.970724   -0.654814
H       1.600706    3.080253    0.327367
H       3.294880    1.843901   -0.937292
H       2.259809    0.154982   -2.532594
H       2.163666   -2.059152   -1.415009
H       2.608880   -1.789124    1.231284
H       0.564909   -0.446788    2.172603
H      -1.033881   -0.355385   -0.008157
