21

C       0.015513    1.545341   -0.243133
C       0.038104    0.047256   -0.027464
C       1.320775   -0.743505   -0.108631
C       0.610698   -0.586849    1.218521
C       1.213090    0.236676    2.337547
O       0.223950    0.933887    3.082989
C       2.092003   -0.652611    3.250653
C       2.773113    0.085992    4.304739
C       3.346096    0.702342    5.162541
H       0.948643    2.019697    0.073229
H      -0.125311    1.778463   -1.304082
H      -0.797018    2.013698    0.320890
H      -0.839941   -0.460276   -0.419721
H       1.319211   -1.714766   -0.591079
H       2.241098   -0.183049   -0.247602
H       0.083736   -1.470951    1.577570
H       1.849195    1.024403    1.922563
H      -0.401918    0.285791    3.424988
H       1.457268   -1.434131    3.693109
H       2.826229   -1.176538    2.625912
H       3.845264    1.247330    5.924576
