17

C      -0.164505    1.591528   -0.176787
C       0.202570    0.124148   -0.142283
O       1.509945   -0.141610   -0.712093
C       1.901522   -0.942255    0.420205
C       0.635217   -0.538301    1.180866
C       0.627647    0.143448    2.556510
C      -0.251909   -1.041202    2.954659
O      -0.815380   -1.446684    3.916680
O      -0.213288   -1.607126    1.699804
H       0.584698    2.198644    0.340165
H      -0.223103    1.934240   -1.214022
H      -1.141855    1.756150    0.289455
H      -0.567965   -0.483513   -0.637389
H       1.940903   -2.013963    0.188479
H       2.859511   -0.621439    0.844979
H       1.586126    0.189901    3.076731
H       0.131618    1.113441    2.617055
