18

N      -0.060393   -1.155063   -0.130283
C       0.007423   -0.003391   -0.052638
C       0.029860    1.447234    0.039493
C      -0.320065    2.066567    1.436381
C       0.849237    1.552824    2.289978
N       1.976341    1.535254    1.312200
C       1.432487    2.103191    0.070313
C       1.038878    3.586604    0.266962
N      -0.106511    3.507304    1.220776
H      -0.604929    1.866138   -0.746128
H      -1.312204    1.853066    1.831834
H       1.022956    2.230767    3.130209
H       0.665516    0.545006    2.678294
H       2.769977    2.070756    1.643441
H       2.079183    1.908507   -0.786061
H       1.872568    4.154356    0.696358
H       0.757001    4.072410   -0.675672
H      -0.933853    3.919134    0.804931
