17

O      -0.058044   -0.082708    0.140558
C      -0.071844    1.125621    0.110702
C      -1.335414    1.972471    0.168189
N      -1.253448    3.115739    1.083623
C      -0.097307    3.597619    1.326910
N       1.099587    3.244906    0.744068
C       2.340367    2.976982    1.522874
C       2.428152    1.562720    0.877721
C       1.197843    1.949803    0.023316
H      -1.558525    2.329363   -0.850434
H      -2.168724    1.330168    0.465490
H      -0.010614    4.410317    2.051054
H       3.155399    3.656478    1.256700
H       2.197654    2.996270    2.606975
H       3.341390    1.349667    0.322429
H       2.224128    0.739665    1.563949
H       1.425565    2.101213   -1.041356
