14

N       0.117608    1.326447    0.318094
C      -0.046800   -0.007194    0.026619
C      -1.268718   -0.620118    0.075396
C      -1.512713   -2.029977   -0.202506
O      -2.485034   -2.439971   -0.799314
N      -0.624506   -2.961858    0.392974
C       0.646603   -2.892388    0.297010
C       1.441072   -1.824535   -0.311090
N       1.149168   -0.577141   -0.388384
H       0.924095    1.761470   -0.101650
H      -0.706656    1.901342    0.382177
H      -2.159642   -0.009086    0.190673
H       1.229806   -3.707419    0.737126
H       2.433664   -2.107991   -0.668904
