16

O       0.037234   -0.022798   -0.011071
C       0.011289    1.161615    0.079944
C      -1.032987    2.307236    0.042885
C      -0.806941    3.029237    1.386552
C       0.741383    3.055134    1.339281
C       1.588655    4.123060    1.906766
N       1.622616    2.752344    2.463249
C       0.982525    2.364692   -0.000313
O      -0.063519    2.967380   -0.837390
H      -2.034904    2.215948   -0.370621
H      -1.250268    4.028091    1.379507
H      -1.201523    2.467686    2.239797
H       2.498943    4.434051    1.401164
H       1.095681    4.906310    2.477877
H       1.094849    2.709311    3.331479
H       1.978483    2.343769   -0.435013
