21

C       0.144118    1.535556    0.101009
C      -0.008107    0.016425   -0.044244
C       0.625707   -0.526310   -1.296963
C       0.203860   -0.048483   -2.707260
C       0.982817   -1.162584   -3.434099
C       0.234257   -2.432785   -2.948985
C       0.835876   -2.075972   -1.580465
C       2.054132   -1.432054   -2.267159
O       2.081124   -0.313307   -1.382480
H       1.199760    1.819213    0.068897
H      -0.372309    2.069570   -0.702915
H      -0.273623    1.878940    1.051832
H       0.445126   -0.484829    0.819011
H      -1.069555   -0.263235   -0.049252
H      -0.871943   -0.092717   -2.900845
H       0.572884    0.960861   -2.898011
H       1.262553   -1.016563   -4.475837
H      -0.852515   -2.460271   -3.073205
H       0.671221   -3.358561   -3.335071
H       0.898446   -2.744230   -0.722684
H       3.015637   -1.894617   -2.484620
