13

C       0.087134    1.484951    0.061185
C      -0.041269    0.007457    0.043006
C      -1.118421   -0.834398   -0.083619
C      -0.601468   -2.179296   -0.026794
C       0.734981   -2.048834    0.128272
O       1.085506   -0.728766    0.171810
C      -2.467201   -0.433433   -0.238862
N      -3.569953   -0.101650   -0.365744
H       0.730991    1.835199   -0.752799
H      -0.897728    1.941678   -0.052292
H       0.526943    1.831345    1.002668
H      -1.169125   -3.092656   -0.094564
H       1.546688   -2.750268    0.220723
