15

O      -0.321604    1.431981   -0.054664
C      -0.124104    0.067929   -0.059499
C      -0.407122   -0.850591   -1.210537
C      -1.178749   -1.004543    0.090035
C      -0.302739   -1.677601    1.182927
O       0.982310   -1.998284    0.676435
C       0.746765   -0.637877    1.051698
C       1.544227    0.006050    2.114697
O       2.298301   -0.577721    2.853891
H       0.345181    1.840015   -0.620016
H      -0.993860   -0.383381   -1.995280
H       0.302189   -1.603240   -1.531509
H      -2.252398   -0.899573    0.155790
H      -0.637557   -2.195287    2.073989
H       1.369670    1.100147    2.191951
