16

C       1.118918    0.923936    0.584976
C       0.279613   -0.257180    0.218133
N       0.266569   -0.756108   -1.019836
N      -0.583476   -1.772366   -0.940185
N      -1.145570   -1.982604    0.238872
C      -0.606554   -1.031557    1.007239
C      -0.994498   -0.923432    2.427283
C      -0.044831   -0.591444    3.503310
O      -0.967567    0.383312    3.020554
H       2.073946    0.615169    1.026599
H       1.343918    1.515622   -0.304876
H       0.599198    1.547379    1.315140
H      -0.809219   -2.337602   -1.742251
H      -1.865942   -1.521634    2.687925
H      -0.232964   -0.956916    4.511842
H       1.000281   -0.409019    3.259861
