19

C      -0.453373    1.593985    0.583216
N      -0.022593    0.281551    0.108712
C      -1.141160   -0.595865   -0.198154
C      -0.840200   -1.994635   -0.655219
C      -1.215332   -1.740495    0.791084
C      -0.074433   -1.534058    1.769231
C       0.818487   -0.437563    1.085797
C       2.001212   -1.024018    0.432404
N       2.940275   -1.490553   -0.053982
H       0.422564    2.223746    0.761834
H      -1.051662    2.076023   -0.194851
H      -1.057420    1.563587    1.507672
H      -2.017180   -0.085579   -0.579862
H      -1.589648   -2.471594   -1.277529
H       0.179540   -2.266236   -0.906039
H      -2.157016   -2.118297    1.171298
H      -0.457869   -1.149374    2.719125
H       0.502869   -2.436990    1.982754
H       1.196742    0.268809    1.830558
