23

C       0.043849    1.571376   -0.185652
C       0.008764    0.059122   -0.002937
C       0.735788   -0.884727   -1.007565
C       1.171229   -1.807612    0.169924
C       2.634543   -1.615121    0.627163
C       2.188423   -0.460096    1.583383
C       2.881625    0.889665    1.440291
C       0.688912   -0.706924    1.170229
O      -0.152686   -1.067683    2.239213
H       1.053608    1.951407   -0.356286
H      -0.565753    1.864598   -1.047988
H      -0.365088    2.089725    0.689941
H      -1.038756   -0.259440    0.056294
H       0.097288   -1.341444   -1.767046
H       1.584855   -0.416172   -1.515940
H       0.748164   -2.811859    0.183108
H       3.062036   -2.473687    1.150831
H       3.328029   -1.319729   -0.166806
H       2.266733   -0.790192    2.624234
H       2.944827    1.212951    0.397330
H       2.372185    1.677346    2.006513
H       3.908212    0.824717    1.818928
H      -0.260656   -0.298060    2.809571
