16

O      -0.244899    0.037465    0.260785
C      -0.012419    1.161494   -0.096109
C       1.383532    1.754928   -0.204452
N       1.437897    2.747775   -1.267590
C       2.657655    3.543214   -1.281396
C       2.538413    4.649583   -2.345220
C       3.721984    5.503231   -2.390390
N       4.666200    6.168741   -2.410062
H      -0.819696    1.877671   -0.369799
H       1.575801    2.267379    0.750378
H       2.115339    0.934841   -0.279121
H       1.324482    2.287079   -2.166169
H       2.775333    4.006513   -0.295661
H       3.572263    2.955100   -1.466526
H       2.392287    4.205554   -3.337603
H       1.654422    5.260830   -2.136873
