17

C      -0.040570    1.413261   -0.339823
C      -0.049632   -0.048790    0.125326
N      -1.395667   -0.596485    0.121031
C      -1.857987   -1.164618   -0.903621
O      -1.041723   -1.266760   -2.080162
C      -1.487321   -1.932500   -3.148795
C      -2.708819   -2.493403   -3.192942
C      -3.518873   -2.318932   -2.016889
N      -3.131931   -1.699072   -0.951768
H       0.963397    1.839025   -0.244085
H      -0.347045    1.490087   -1.387431
H      -0.730480    2.010969    0.262470
H       0.640803   -0.634973   -0.495652
H       0.314544   -0.097048    1.157244
H      -0.757454   -1.952066   -3.952030
H      -3.058961   -3.025619   -4.065460
H      -4.530292   -2.725460   -2.003306
