15

O      -0.438585    1.229971    0.007145
C       0.092034   -0.094408   -0.102997
C       1.084908   -0.175055   -1.279103
N       0.461675    0.320862   -2.487039
C       0.405897   -0.393364   -3.643204
O       0.922514   -1.475468   -3.824206
C       0.709897   -0.543958    1.142197
C       1.259637   -0.875086    2.158454
H       0.199718    1.757788    0.500529
H      -0.772470   -0.725576   -0.339221
H       1.980561    0.408757   -1.028008
H       1.392840   -1.206275   -1.462484
H      -0.059316    1.180916   -2.408896
H      -0.170908    0.140050   -4.424306
H       1.727023   -1.183800    3.061294
