18

C      -0.277991    1.365374    0.104004
N       0.203507   -0.002367   -0.089388
C       0.795163   -0.566092    1.084430
C       0.162862   -1.634334    1.920163
N      -0.664864   -2.471094    1.035068
C       0.560637   -2.944281    0.308947
C       1.438920   -1.952384    1.087549
C       2.785104   -2.180392    1.480624
N       3.880445   -2.367095    1.809660
H       0.570180    2.026016    0.312920
H      -0.745467    1.711180   -0.821804
H      -1.007795    1.480715    0.922539
H      -0.573251   -0.597078   -0.366882
H       1.388459    0.145467    1.651868
H       0.026165   -1.604831    2.995193
H      -1.107945   -3.230656    1.537779
H       0.819546   -3.978909    0.546145
H       0.519652   -2.814919   -0.776909
