16

C      -0.025740    1.453576   -0.005333
N      -0.033430   -0.004479    0.015720
C      -1.193612   -0.708970   -0.093997
C      -1.184805   -2.074618   -0.083406
N      -2.325618   -2.877277   -0.282695
C       0.103899   -2.665878    0.060426
N       1.224858   -2.016830    0.186152
C       1.228646   -0.632107    0.168050
O       2.225382    0.057494    0.272760
H       0.601324    1.809352   -0.826165
H      -1.046764    1.818316   -0.128368
H       0.401380    1.837196    0.924265
H      -2.102481   -0.125768   -0.196860
H      -3.194173   -2.386608   -0.112738
H      -2.309827   -3.721712    0.275766
H       0.168858   -3.756826    0.070291
