15

C       0.101970    1.506952   -0.135216
C       0.084834    0.015176    0.063888
O       1.335998   -0.676835    0.113432
C       0.536543   -0.690082    1.291756
C       1.092531    0.039742    2.511576
C       2.208844   -0.676004    3.130133
N       3.092841   -1.232197    3.622136
C      -0.090667   -1.968188    1.597015
N      -0.616103   -2.963836    1.856544
H       0.902199    1.995372    0.423346
H       0.256056    1.725740   -1.196373
H      -0.858611    1.940777    0.160020
H      -0.674400   -0.512760   -0.514542
H       1.435239    1.034216    2.219225
H       0.296480    0.166791    3.253713
