19

O       0.782465    0.686163   -0.696538
C       0.147630   -0.216458    0.152613
C      -0.103818    0.146732    1.647775
C      -1.454252   -0.566528    1.535393
C      -1.869996   -1.780198    2.313875
C      -2.650056   -0.490565    2.438519
C      -1.387159   -0.498147   -0.016316
C      -2.186902    0.668926   -0.522941
O      -1.765762    1.798427   -0.651040
H       0.207256    1.463419   -0.748134
H       0.694964   -1.160532    0.079390
H       0.609687   -0.227995    2.385807
H      -0.216272    1.228606    1.770422
H      -2.331602   -2.604749    1.779874
H      -1.242811   -2.082444    3.146689
H      -2.553123    0.083905    3.354002
H      -3.640202   -0.451970    1.996564
H      -1.688886   -1.406476   -0.548238
H      -3.252206    0.447618   -0.754229
