19

C       0.019937    1.483776   -0.161321
C       1.541500    1.456580    0.155410
N       1.420173    0.018043    0.426964
C      -0.052040    0.026450    0.374722
C       2.196497   -0.662018    1.307610
N       3.331490   -0.292239    1.763549
C       3.813230   -1.405363    2.585822
C       2.621731   -2.400311    2.642097
O       1.679734   -1.867933    1.687398
H      -0.566477    2.219587    0.388717
H      -0.205350    1.569329   -1.225171
H       2.223312    1.699452   -0.664382
H       1.837559    2.030217    1.041010
H      -0.523190   -0.069227    1.359878
H      -0.479530   -0.725761   -0.294282
H       4.704102   -1.861116    2.134133
H       4.102781   -1.057720    3.583588
H       2.876788   -3.419138    2.339857
H       2.136224   -2.433346    3.623304
