19

C      -0.322235    1.400300    0.391858
C       0.400313    0.125189   -0.064125
C       0.914897   -0.662583    1.116598
O      -0.013729   -1.436121    1.868751
C       1.040163   -2.142357    1.184771
C       0.577099   -3.101597    0.114336
O      -0.010597   -4.247891    0.709685
C       2.106814   -2.687168    2.107869
O       2.402438   -2.178152    3.157027
H       0.344187    2.046939    0.972197
H      -0.682034    1.972873   -0.467512
H      -1.181481    1.152376    1.021869
H      -0.276651   -0.488299   -0.664728
H       1.253512    0.386218   -0.702961
H       1.619452   -0.123373    1.754066
H      -0.110970   -2.608079   -0.581753
H       1.434742   -3.464605   -0.463317
H      -0.746370   -3.937149    1.250080
H       2.626393   -3.593824    1.730272
