17

C       0.004710    1.577432    0.057471
C       0.062675    0.066261    0.041167
C       1.306520   -0.753386   -0.281307
C       2.521724   -0.126523    0.385685
O       1.841204   -0.066852    1.667020
C       0.707282   -0.762625    1.115635
C       0.062299   -1.796891    1.978967
H       0.829014    1.991992    0.642538
H       0.051969    1.992849   -0.954989
H      -0.928295    1.921966    0.516147
H      -0.826682   -0.417187   -0.360634
H       1.328754   -1.519393   -1.045650
H       3.384738   -0.799803    0.442540
H       2.850656    0.861146    0.040776
H      -0.385754   -1.331645    2.864672
H      -0.731864   -2.312506    1.431317
H       0.792529   -2.537700    2.319759
