19

C       0.012400    1.482877   -0.048076
C       0.005212    0.027198   -0.015839
C      -0.002575   -1.176882    0.014517
C      -0.020173   -2.629062    0.044068
C       0.467892   -3.275896    1.396353
C      -0.823267   -4.052838    1.721675
C      -1.201734   -4.731289    0.386511
C      -1.455180   -3.242876    0.067774
O      -1.856313   -3.052129    1.454470
H       1.034918    1.876943   -0.060440
H      -0.498805    1.865340   -0.938749
H      -0.493157    1.902722    0.828683
H       0.545614   -3.022601   -0.808016
H       1.342538   -3.918882    1.270056
H       0.683744   -2.519620    2.151620
H      -0.914352   -4.538695    2.692856
H      -0.441028   -5.281861   -0.173884
H      -2.132372   -5.293672    0.462591
H      -2.175747   -2.883781   -0.665653
