21

C      -0.335231    1.561745    0.188201
C      -0.066665    0.063399    0.118739
O      -1.213109   -0.662059    0.542048
C       0.385527   -0.542579   -1.216990
C       1.730268   -0.021028   -1.631517
C       1.661087   -1.089172   -0.574437
C       1.247414   -0.515997    0.786482
C       2.206613    0.384059    1.540581
O       1.538018    0.813521    2.724778
H       0.484110    2.150087   -0.234595
H      -1.248364    1.796859   -0.367043
H      -0.459593    1.875635    1.229707
H      -1.401102   -0.396539    1.449500
H      -0.294652   -1.028599   -1.905221
H       2.071681   -0.363163   -2.603545
H       2.041432    0.993445   -1.398133
H       2.127175   -2.056402   -0.719097
H       0.927717   -1.319151    1.456473
H       3.123373   -0.177676    1.783553
H       2.507567    1.244834    0.925291
H       2.110537    1.431461    3.188540
