17

O      -0.182505    1.549036   -0.328096
C       0.020126    0.198564    0.084998
C      -1.327531   -0.537094    0.123488
N      -1.228522   -1.882508    0.666442
C      -0.800687   -2.987321   -0.021228
O      -1.145036   -4.121919    0.254608
N       0.082155   -2.758222   -1.080885
C       0.985471   -1.720423   -1.302371
C       1.021084   -0.480497   -0.801026
H      -0.303384    1.539654   -1.284593
H       0.397555    0.276691    1.112366
H      -2.007553    0.032434    0.759564
H      -1.756899   -0.547807   -0.888207
H      -1.881843   -2.136664    1.390618
H       0.309283   -3.635651   -1.523069
H       1.772635   -2.022445   -1.986652
H       1.861505    0.140055   -1.096311
