19

C       0.523629    0.790600   -0.866165
C       0.157122   -0.286035    0.150525
N      -1.050342   -0.997544   -0.269119
C      -1.511492   -2.044530    0.636809
C      -2.430691   -1.577192    1.780377
C      -2.212504   -3.107803   -0.204838
O      -2.047172   -4.295085   -0.107153
C      -3.175640   -2.567726   -1.198028
N      -3.964790   -2.142413   -1.928713
H       1.448269    1.296527   -0.574359
H       0.660288    0.352566   -1.858607
H      -0.262679    1.550813   -0.936372
H       0.968822   -1.020589    0.220369
H       0.060391    0.170417    1.151659
H      -1.797748   -0.335480   -0.454703
H      -0.634287   -2.548168    1.054663
H      -3.349285   -1.131993    1.382195
H      -2.708948   -2.410124    2.433345
H      -1.920019   -0.822696    2.385280
