18

C      -0.119350    1.138495   -0.447357
C       1.225817    0.986635    0.177052
N       0.300343   -0.136128    0.116958
C      -0.288531   -0.615605    1.351930
C      -0.827206    0.299050    2.504106
C      -1.967488   -0.737953    2.699447
C      -1.688955   -1.266316    1.266867
H      -0.847306    1.746001    0.086013
H      -0.226767    1.154491   -1.528586
H       2.119159    0.903588   -0.436290
H       1.376457    1.477056    1.137674
H       0.425562   -1.328991    1.779354
H      -0.163044    0.501164    3.347766
H      -1.222337    1.249567    2.134466
H      -1.713583   -1.478988    3.462431
H      -2.966546   -0.351569    2.910885
H      -2.305992   -0.748819    0.525498
H      -1.743776   -2.341372    1.082292
