17

O       0.305024    1.341103   -0.257925
C       0.114949   -0.033117    0.034051
C      -1.317965   -0.502299   -0.226471
C      -1.507960   -1.987244    0.059072
N      -1.476721   -2.383731    1.500438
C      -2.755748   -3.138734    1.405874
C      -2.940610   -2.550409   -0.002261
O      -3.829697   -2.504622   -0.796917
H      -0.232346    1.849485    0.357903
H       0.809058   -0.572607   -0.621238
H       0.395525   -0.267517    1.072384
H      -2.009111    0.068135    0.407309
H      -1.585592   -0.300678   -1.269828
H      -0.837680   -2.585508   -0.579269
H      -0.683162   -2.962122    1.748687
H      -2.666701   -4.233871    1.386937
H      -3.508131   -2.862416    2.152494
