18

C       0.370824    0.636557    0.753776
C      -0.088695   -0.289779   -0.345606
O       0.646158   -0.710618   -1.209382
C      -1.552310   -0.689915   -0.314299
C      -2.125592   -1.228397   -1.606289
N      -1.866592   -2.091262   -0.487652
C      -0.927916   -3.124466   -0.373300
C      -1.064994   -4.208431   -1.420329
O      -0.137376   -3.155919    0.540741
H       1.410115    0.923530    0.593310
H      -0.264231    1.528182    0.804586
H       0.275592    0.116933    1.714638
H      -2.192650   -0.150308    0.378960
H      -3.170631   -1.046699   -1.843182
H      -1.431677   -1.252574   -2.442641
H      -0.568985   -3.880394   -2.340810
H      -0.574442   -5.114323   -1.064419
H      -2.112921   -4.409370   -1.656492
