19

O       0.179646    1.428615    0.278117
C       0.061746    0.079193   -0.155668
C      -1.341897   -0.421277   -0.145991
C      -2.265239   -0.783707    1.001228
C      -3.382021    0.114758    0.465668
C      -2.680602   -0.016676   -0.909913
C      -2.855168   -1.519493   -1.275122
O      -2.318396   -1.899806   -2.522025
C      -1.944401   -1.816772   -0.083958
H      -0.212746    1.479388    1.156137
H       0.477507    0.070085   -1.170384
H       0.686385   -0.597188    0.452000
H      -1.992127   -0.974630    2.032794
H      -4.419212   -0.233946    0.533889
H      -3.309051    1.127570    0.871063
H      -2.781763    0.741666   -1.683549
H      -3.877242   -1.912929   -1.263371
H      -1.385771   -1.653893   -2.527746
H      -1.445620   -2.749133    0.153445
