22

C      -0.020373    1.548102    0.048007
C       0.142911    0.062463   -0.033145
N      -0.832310   -0.875730    0.586601
C       0.610328   -0.957255    0.944678
C       1.293853   -1.804379   -0.142453
C       2.816507   -1.698095   -0.061571
C       0.830255   -3.248864   -0.284153
C       0.705109   -0.766361   -1.204018
O      -0.230390   -1.217071   -2.143100
H       0.908199    2.060284   -0.225453
H      -0.804794    1.895145   -0.634509
H      -0.291493    1.863760    1.061875
H      -1.311373   -0.371944    1.331751
H       0.926276   -0.824324    1.974207
H       3.208318   -2.251545    0.799730
H       3.281856   -2.110411   -0.963630
H       3.142222   -0.656233    0.037639
H      -0.258526   -3.320311   -0.239718
H       1.161017   -3.669535   -1.239320
H       1.243532   -3.869177    0.519613
H       1.502487   -0.262291   -1.757275
H      -1.007480   -1.468723   -1.624512
