21

C      -0.012239    1.506024   -0.039726
C       1.291189    0.788204    0.043884
C      -0.009200   -0.030951    0.001924
C      -0.394447   -0.629332    1.303007
C      -0.864580   -1.843781    1.592429
C      -1.173662   -2.979919    0.653171
C      -1.889025   -2.582432   -0.649643
C      -1.087480   -1.719936   -1.588905
C      -0.308479   -0.676437   -1.299278
H      -0.381073    2.020114    0.840991
H      -0.289909    1.972602   -0.977975
H       1.922924    0.751587   -0.836781
H       1.833902    0.802924    0.982156
H      -0.224913    0.041885    2.144526
H      -1.037839   -2.054717    2.645749
H      -0.247667   -3.513237    0.396935
H      -1.798941   -3.708234    1.182615
H      -2.177510   -3.498009   -1.178944
H      -2.830727   -2.077530   -0.393136
H      -1.171616   -1.980790   -2.641922
H       0.172403   -0.177574   -2.140286
