14

C       0.025861    1.459219   -0.007556
C      -0.059768   -0.022728    0.024067
N      -1.085282   -0.783568   -0.209141
C      -0.560875   -2.040053   -0.030686
N       0.706909   -2.059905    0.292167
O       1.055220   -0.714551    0.332281
C      -1.364995   -3.303052   -0.189588
N      -0.644089   -4.432814    0.034349
O      -2.538601   -3.278160   -0.488784
H       0.766300    1.786554   -0.743454
H      -0.950237    1.866074   -0.269764
H       0.332246    1.848183    0.968030
H       0.330709   -4.392306    0.280531
H      -1.108241   -5.321064   -0.051760
