20

C      -0.161902    1.526062   -0.243846
C       0.019450    0.050970    0.038456
N       1.214592   -0.738736   -0.250273
C       2.423047    0.072830    0.164021
C       2.001798    0.095036    1.657797
C       1.990905    1.371482    2.490362
C       0.700830   -0.573169    1.213297
C       0.095270   -1.717084    1.921779
O       0.351499   -2.008377    3.066266
H       0.700316    2.136425    0.020051
H      -0.362647    1.669522   -1.311109
H      -1.024769    1.906008    0.312038
H      -0.855895   -0.524262   -0.266973
H       3.327888   -0.500822   -0.040442
H       2.497822    1.038350   -0.344453
H       2.579709   -0.659896    2.198273
H       1.419487    2.180406    2.029051
H       1.553013    1.171958    3.473535
H       3.012761    1.732598    2.649382
H      -0.625446   -2.309927    1.314226
