25

C      -0.085581    1.567762    0.056679
C      -0.006126    0.029134    0.040474
C       0.617580   -0.468637    1.357965
C      -1.430750   -0.544731   -0.081197
C       0.806476   -0.470877   -1.182012
C       2.283407   -0.117083   -1.244111
C       3.055173   -0.501998   -2.528248
C       3.433371    0.990390   -2.577029
O       2.551295    1.293023   -1.478005
H       0.904692    2.022483    0.125811
H      -0.555446    1.945218   -0.858160
H      -0.686947    1.909422    0.906862
H      -0.021537   -0.202316    2.206778
H       0.733826   -1.558765    1.359720
H       1.600482   -0.023411    1.539790
H      -1.903866   -0.233795   -1.019328
H      -1.423933   -1.640535   -0.057057
H      -2.063623   -0.196528    0.742436
H       0.745920   -1.568917   -1.215723
H       0.330540   -0.104012   -2.101130
H       2.799056   -0.448577   -0.332258
H       3.873394   -1.214476   -2.413587
H       2.406295   -0.825405   -3.345518
H       4.481564    1.206809   -2.330696
H       3.163508    1.542677   -3.484461
