22

C       0.758079    1.359616    0.082723
C       0.970309    0.016172   -0.609843
C      -0.258401   -0.474892   -1.357495
O      -1.267850    0.184947   -1.454406
C      -0.193829   -1.884211   -1.957765
N       1.102391   -2.235434   -2.490265
C       1.487987   -1.733252   -3.828399
C       2.190539   -3.084871   -4.096050
C       1.340583   -3.629254   -2.922570
H       0.476911    2.130401   -0.639389
H      -0.048085    1.299358    0.818928
H       1.670052    1.679718    0.594575
H       1.800727    0.057878   -1.325813
H       1.269204   -0.767177    0.099596
H      -0.421910   -2.578298   -1.135293
H      -1.015567   -1.970731   -2.691200
H       0.620741   -1.576231   -4.490635
H       2.096139   -0.822405   -3.825863
H       2.039105   -3.540197   -5.074573
H       3.257016   -3.058298   -3.866367
H       1.826707   -4.265270   -2.175223
H       0.426296   -4.132596   -3.276607
