19

C       0.099162    1.328988   -0.123364
O      -0.141556   -0.042857    0.123715
C       0.576268   -0.559766    1.191960
C       0.240257   -0.130883    2.621408
C       1.057472   -0.874008    3.367103
C       1.834060   -1.695573    2.348765
C       0.822659   -2.106770    1.214359
C       1.942747   -1.951074    0.157728
C       2.150129   -0.761519    1.125608
H       1.148303    1.513516   -0.394703
H      -0.541073    1.621311   -0.958629
H      -0.146563    1.952183    0.748213
H      -0.513318    0.588053    2.909562
H       1.161652   -0.920328    4.441999
H       2.586284   -2.413720    2.672171
H       0.049239   -2.876005    1.281815
H       2.721197   -2.718665    0.155314
H       1.619751   -1.706396   -0.855500
H       2.915602    0.018433    1.094773
