15

O      -0.004730    1.401109   -0.091000
C       0.040182    0.039727    0.004154
C      -0.172453   -0.827426   -1.259291
C       0.675017   -2.059852   -1.401752
C       0.633738   -2.707632   -0.238763
N      -0.161724   -1.973446    0.751541
C      -1.043044   -1.058968   -0.068769
C       0.637682   -0.762830    1.086407
N       1.360610   -0.459274    2.068721
H       0.058969    1.754743    0.805593
H      -0.547182   -0.271190   -2.110770
H       1.207310   -2.345442   -2.297803
H       1.137404   -3.612336    0.069573
H      -2.118956   -1.035015    0.045655
H       1.460202   -1.249331    2.709102
