15

C      -0.017610   -1.196702   -0.071513
C      -0.017265    0.005781   -0.037095
C      -0.021379    1.426067   -0.005447
C      -0.510633    2.360140    1.157954
N       0.896112    2.619978    1.528712
C       1.214249    2.388649    0.104219
C       0.340617    3.314703   -0.787584
C      -0.927752    3.293712   -0.012761
N      -0.703766    2.282119   -1.099351
H      -0.017942   -2.258257   -0.101740
H      -1.219838    2.090373    1.937121
H       1.083694    3.566167    1.861369
H       2.237379    2.147521   -0.174903
H       0.628599    4.067710   -1.509845
H      -1.719774    4.028837   -0.075278
