18

O      -0.238081    1.293154   -0.185232
C       0.153433   -0.015682    0.149232
C       0.755764   -0.694161   -1.066685
O       0.771842   -0.153916   -2.145101
C       1.176750    0.044570    1.303311
O       2.271309    0.851528    0.905931
C       0.530876    0.533304    2.583454
C       0.108307   -0.447528    3.616092
N       1.264328    0.432249    3.848705
H      -0.123928    1.358085   -1.148280
H      -0.711783   -0.623362    0.469360
H       1.166308   -1.712184   -0.913187
H       1.586966   -0.960587    1.473301
H       1.883281    1.670518    0.568755
H      -0.034033    1.456548    2.473727
H      -0.757458   -0.244949    4.239697
H       0.282904   -1.503231    3.418670
H       2.135123   -0.074646    3.703686
