19

C      -0.089675    1.419503    0.131848
C       0.028234   -0.100665   -0.035364
O       0.791823   -0.562035    1.082491
C      -1.360899   -0.734804   -0.076009
C      -1.636154   -2.077226    0.487558
N      -2.136081   -0.862737    1.162932
C       0.744245   -0.381416   -1.377312
N       2.052581   -0.745867   -1.252988
O       0.168390   -0.277654   -2.442498
H       0.902687    1.873942    0.199879
H      -0.615219    1.845190   -0.725248
H      -0.644928    1.652880    1.043806
H       0.885765   -1.518260    0.999849
H      -1.935098   -0.419819   -0.940945
H      -2.397279   -2.703971    0.032526
H      -0.836757   -2.637204    0.968029
H      -1.515543   -0.661422    1.946594
H       2.516576   -0.613316   -0.369638
H       2.603174   -0.799402   -2.095208
