21

C      -0.128537    1.557395   -0.033855
C       0.003099    0.057624   -0.028844
C       0.044289   -0.665641   -1.150055
C       0.089666   -2.169770   -1.152560
C      -0.339035   -2.694360    0.216345
O       0.355328   -2.010060    1.244824
C       0.050419   -0.620853    1.324416
C       1.124877   -0.054211    2.262208
O       1.148094   -0.754411    3.486583
H       0.760367    2.050362    0.377727
H      -0.279469    1.932850   -1.049246
H      -0.979199    1.884556    0.577797
H       0.019952   -0.160311   -2.113207
H      -0.573840   -2.571110   -1.929215
H       1.099500   -2.528884   -1.394503
H      -1.426257   -2.568743    0.343539
H      -0.102850   -3.755003    0.339534
H      -0.928388   -0.496396    1.825332
H       2.097412   -0.099504    1.745375
H       0.910320    0.992226    2.495806
H       1.144411   -1.689750    3.249064
