17

O      -0.990020    1.573171   -0.362298
C       0.056970    1.042563   -0.088793
C       1.414564    1.635218   -0.400779
C       1.325951    2.868828   -1.282365
C       0.547768    4.104749   -0.756673
O       1.669339    4.978819   -0.998971
C       2.524597    3.865767   -1.293888
C       0.927896    2.514294   -2.699241
O       0.845342    1.391556   -3.125456
H       0.083900    0.066426    0.443010
H       1.899643    1.863929    0.558886
H       2.022465    0.855051   -0.874564
H      -0.341462    4.401446   -1.321476
H       0.290709    4.042577    0.307089
H       3.256218    3.672183   -0.497384
H       3.057971    3.990318   -2.244110
H       0.737083    3.397265   -3.350035
