27

C      -0.637687    1.108836   -0.950388
C      -0.353500   -0.367263   -0.658021
C       0.285926   -0.589323    0.718204
C       0.609713   -2.062926    1.044702
C       1.854347   -2.556576    0.272705
C       1.929596   -4.071873    0.053221
C       0.763356   -2.206237    2.561015
O       0.952490   -3.558313    2.923628
C       1.110653   -3.734244    4.309699
H       0.285270    1.699455   -0.939765
H      -1.104441    1.239215   -1.931800
H      -1.311952    1.539090   -0.201282
H      -1.289340   -0.938940   -0.712776
H       0.294420   -0.772555   -1.444619
H       1.206365    0.007420    0.793813
H      -0.395462   -0.188065    1.480973
H      -0.252827   -2.676687    0.747696
H       1.882616   -2.062051   -0.705432
H       2.752893   -2.213754    0.804386
H       1.064813   -4.425086   -0.520282
H       2.829994   -4.338554   -0.510422
H       1.940653   -4.606753    1.003641
H       1.619218   -1.597965    2.907533
H      -0.134827   -1.809207    3.065743
H       1.992169   -3.195829    4.693521
H       0.228211   -3.383877    4.869180
H       1.242603   -4.803371    4.493579
