20

C      -0.379119    1.398888    0.070150
C       0.087565   -0.057861   -0.047703
C       0.989625   -0.263177   -1.271605
C       0.773377   -0.533123    1.240627
C      -0.110658   -1.031051    2.375208
C       0.699454   -2.014803    1.581041
C       1.979051    0.164789    1.606001
C       2.985427    0.756627    1.899374
H       0.475101    2.068058    0.215101
H      -0.905463    1.713000   -0.836854
H      -1.056646    1.531830    0.919639
H      -0.801303   -0.692079   -0.168830
H       1.902318    0.334991   -1.183980
H       1.285301   -1.311986   -1.376117
H       0.474137    0.037743   -2.189254
H       0.200132   -0.810581    3.389340
H      -1.182517   -0.993988    2.210718
H       0.183884   -2.653272    0.871210
H       1.563913   -2.466677    2.052401
H       3.873393    1.275553    2.162488
