14

C       0.096682    1.414348    0.076097
N       0.017350   -0.036884    0.024599
N      -0.019190   -0.621938   -1.172287
C      -0.012894   -1.920877   -1.215746
C       0.043538   -2.784333   -0.046769
N       0.043393   -4.067233   -0.125104
C       0.099439   -1.966136    1.158235
F       0.162100   -2.599343    2.320518
N       0.092780   -0.683799    1.200447
H       1.114684    1.740035    0.314573
H      -0.190205    1.793547   -0.903037
H      -0.585126    1.786139    0.843075
H      -0.054509   -2.374685   -2.199777
H       0.089244   -4.475453    0.809952
