15

C      -0.034183    1.547369   -0.062280
C       0.030584    0.029692   -0.023953
C      -1.143584   -0.651098   -0.515019
N      -2.082977   -1.197399   -0.910419
C       1.349528   -0.679402   -0.244543
O       2.430582    0.136022   -0.510917
C       0.735665   -0.691462    1.151661
C       1.348860    0.086744    2.186688
N       1.867876    0.699435    3.019364
H       0.908278    1.976183    0.276084
H      -0.220875    1.883671   -1.085257
H      -0.843243    1.909878    0.576455
H       1.318040   -1.627286   -0.779295
H       3.201464   -0.190593   -0.032323
H       0.288185   -1.621540    1.484351
