23

C      -0.093525    1.514600    0.018729
C       1.467687    1.490800   -0.055438
C       2.181573    1.702724    1.291273
C       1.355312    1.313124    2.533935
C       0.703988   -0.097016    2.555958
C       0.486132   -0.813548    1.216205
C       1.798064   -1.091002    0.414550
C       1.383503    0.004187   -0.575838
C      -0.079975   -0.022325   -0.030235
H      -0.575275    2.020847    0.859101
H      -0.522644    1.915396   -0.905293
H       1.894333    2.172990   -0.795341
H       3.142214    1.173016    1.279795
H       2.433080    2.765623    1.392074
H       1.989838    1.421884    3.420712
H       0.568030    2.063920    2.654224
H       1.323738   -0.770866    3.161647
H      -0.253278   -0.024591    3.086786
H      -0.091300   -1.720553    1.417879
H       2.746715   -0.984436    0.950265
H       1.784432   -2.078545   -0.056917
H       1.621909   -0.113383   -1.634874
H      -0.894920   -0.537017   -0.543571
