16

O      -0.128351    1.490977   -0.097596
C      -0.015145    0.112630    0.042367
C      -1.266770   -0.752639    0.141662
C      -2.577616   -0.076636   -0.248282
C      -2.494372   -0.029386   -1.797827
O      -1.100084   -0.064477   -2.124951
C      -0.418393   -0.772629   -1.104511
C      -3.194414   -1.168181   -2.425320
N      -3.747036   -2.061112   -2.907266
H      -0.242031    1.665059   -1.041488
H       0.837726   -0.188123    0.644910
H      -1.280567   -1.589535    0.828405
H      -3.448571   -0.635354    0.095904
H      -2.629774    0.941754    0.144787
H      -2.902053    0.895286   -2.215832
H       0.162175   -1.618275   -1.454877
