21

C      -0.347538    1.506598    0.200771
C       0.008658    0.034463    0.057383
C      -1.177021   -0.814470   -0.380756
O       1.131057   -0.124017   -0.864613
C       1.925789   -0.805500    0.121093
C       0.858044   -0.602591    1.203334
C       1.135280    0.071658    2.560937
C       0.549761   -1.218095    3.163697
O       0.340016   -1.777997    1.848840
H       0.520887    2.095094    0.509959
H      -0.693578    1.897544   -0.761323
H      -1.148948    1.650864    0.933388
H      -1.531688   -0.470634   -1.357499
H      -0.898071   -1.867110   -0.458672
H      -2.000165   -0.736317    0.336347
H       2.094447   -1.861837   -0.125389
H       2.891931   -0.312841    0.291354
H       2.191159    0.251293    2.772609
H       0.572344    0.985039    2.758115
H       1.238657   -1.827513    3.759482
H      -0.392178   -1.104840    3.712886
