18

C      -0.032121    1.478486    0.084028
C       1.366873    2.128946   -0.017210
C       2.196592    1.434417   -1.061552
C       1.973844    0.092043   -1.319203
N       2.917849   -0.323377   -2.227624
C       3.729936    0.732580   -2.558351
C       3.309833    1.835788   -1.841124
C       0.937077   -0.684109   -0.679940
C      -0.002342   -0.035296    0.027065
H      -0.533259    1.816588    0.997015
H      -0.653888    1.837462   -0.752549
H       1.261218    3.198217   -0.228226
H       1.871421    2.057805    0.959077
H       2.974856   -1.244362   -2.626208
H       4.526020    0.617134   -3.276095
H       3.758171    2.817502   -1.880319
H       0.932767   -1.766880   -0.770437
H      -0.800645   -0.583693    0.516729
