18

C      -0.037764    1.561062    0.066078
C      -0.039760    0.021764   -0.004391
C      -1.466705   -0.547393    0.002972
O      -2.080235   -0.170600    1.224855
C      -3.406897   -0.621005    1.322648
C      -3.969359   -0.190314    2.606219
N      -4.439379    0.135202    3.608995
C       0.670246   -0.469208   -1.183078
C       1.232146   -0.866400   -2.168562
H       0.985334    1.940856    0.115381
H      -0.515309    1.986264   -0.822111
H      -0.583389    1.893310    0.951520
H       0.458888   -0.367377    0.893291
H      -2.035311   -0.150754   -0.853349
H      -1.438369   -1.643350   -0.090014
H      -4.034205   -0.217310    0.510942
H      -3.468531   -1.720127    1.263222
H       1.743003   -1.218105   -3.030643
