15

C       0.016424    1.496451    0.014492
C      -0.036075   -0.000542    0.023103
C      -1.175153   -0.731241    0.094389
F      -2.350793   -0.109964    0.162592
C      -1.166058   -2.181695    0.099535
N      -2.254777   -2.867067    0.167632
C       0.201998   -2.705205    0.019411
N       1.293290   -2.009272   -0.048912
N       1.161929   -0.676307   -0.046294
H       0.593439    1.875276    0.865785
H       0.487797    1.868913   -0.902143
H      -0.992173    1.903735    0.073320
H      -2.037713   -3.866110    0.158511
H       0.337876   -3.783772    0.015509
H       2.029808   -0.169505   -0.100423
