18

C      -0.027618    1.550529    0.062473
C      -0.115942    0.035992   -0.129110
C       0.811678   -0.471296   -1.250986
O       2.164015   -0.112227   -1.008262
C       0.695471   -1.960594   -1.425949
C      -0.063668   -2.740382   -2.264756
N       0.266455   -4.008786   -1.917925
N       1.177718   -4.032955   -0.932346
N       1.433145   -2.792313   -0.633078
H       1.003807    1.847908    0.266387
H      -0.357933    2.083400   -0.836711
H      -0.655825    1.880068    0.895347
H       0.156949   -0.484208    0.797673
H      -1.145672   -0.263556   -0.363434
H       0.529246    0.024373   -2.188900
H       2.533120   -0.802764   -0.442531
H      -0.771947   -2.513696   -3.043389
H      -0.063788   -4.879128   -2.303948
