18

N      -0.240312    1.194046   -0.160089
C       0.244421   -0.168728   -0.055696
C       0.939687   -0.511753    1.258710
O       1.103305    0.244523    2.178318
O       1.366998   -1.799904    1.251292
C       2.026296   -2.267005    2.417061
C       1.264400   -3.219499    3.303235
C       2.335226   -3.731710    2.359144
O       1.974452   -4.462085    1.229178
H      -0.874374    1.382520    0.611414
H       0.535601    1.835658   -0.022077
H      -0.586042   -0.872493   -0.189028
H       0.944286   -0.381038   -0.872629
H       2.716060   -1.547240    2.839169
H       1.453915   -3.191574    4.370581
H       0.240797   -3.433260    3.015399
H       3.276265   -4.068506    2.785015
H       1.663726   -3.833556    0.567038
