19

C      -0.023528    1.535263    0.143033
C       1.304121    0.835492    0.060923
C       0.009186    0.026493    0.035274
C      -0.000903   -0.665479   -1.342524
C      -0.184639    0.357755   -2.495384
C       1.316788    0.668508   -2.679430
O       1.784199   -0.676794   -3.021111
C       1.538155   -0.948012   -1.624529
C       1.977068    0.483550   -1.254657
H      -0.286751    1.930668    1.119382
H      -0.369092    2.156323   -0.672812
H       1.945514    0.852963    0.935802
H      -0.314316   -0.547490    0.896700
H      -0.663200   -1.529159   -1.389071
H      -0.546025   -0.116462   -3.410409
H      -0.835650    1.197431   -2.259115
H       1.628019    1.437672   -3.386469
H       1.992583   -1.863412   -1.244235
H       3.051694    0.656026   -1.297848
