18

O       0.227260    0.108754    0.444449
C       0.209872    1.285095    0.173299
N       1.242317    1.983570   -0.408469
C       1.868143    3.231703   -0.050767
C       1.681364    3.875542    1.309668
C       1.658439    2.867010    2.475735
C       2.715034    1.804840    2.349466
C       3.161571    1.378755    1.166626
C       2.669783    1.944556   -0.115139
H      -0.688601    1.924286    0.296766
H       1.975511    3.932265   -0.877906
H       2.520568    4.569736    1.444781
H       0.770631    4.484163    1.322422
H       1.767335    3.406737    3.422212
H       0.670524    2.385182    2.527462
H       3.090006    1.354469    3.263676
H       3.907574    0.593466    1.102779
H       3.289491    1.766241   -0.990149
