17

C      -0.016472    1.405492    0.074284
O      -0.028258   -0.023706    0.033329
C      -1.223325   -0.627891    0.014447
C      -1.242774   -2.030447   -0.025591
C      -2.494315   -2.605934   -0.043743
N      -3.635759   -1.895913   -0.025043
C      -3.498051   -0.572211    0.012896
C      -4.747779    0.263292    0.034988
N      -2.331041    0.096968    0.033587
H       1.037583    1.684995    0.084154
H      -0.515014    1.827142   -0.802439
H      -0.518192    1.776333    0.971898
H      -0.326232   -2.604881   -0.040697
H      -2.604322   -3.687543   -0.074715
H      -4.768892    0.890076    0.932336
H      -4.766579    0.939986   -0.825408
H      -5.629742   -0.376668    0.015632
