20

C       0.083803    1.419355    0.057003
N      -0.129144   -0.012031   -0.056721
C       0.589520   -0.684000   -1.044781
C       1.303453   -0.168196   -2.084842
O       1.788617   -1.186438   -2.866890
C       1.388511   -2.357417   -2.303784
C       1.822370   -3.600656   -2.995789
C       0.646701   -2.121459   -1.183972
C      -0.006577   -3.103724   -0.263688
H       1.141645    1.697256    0.197979
H      -0.271599    1.913558   -0.854223
H      -0.496763    1.808179    0.896943
H      -0.094760   -0.486001    0.835425
H       1.535531    0.829628   -2.412122
H       1.479485   -3.617676   -4.036634
H       2.914870   -3.692223   -3.011611
H       1.417574   -4.480254   -2.490680
H       0.425722   -3.073948    0.745780
H      -1.078356   -2.896989   -0.158077
H       0.099607   -4.129043   -0.627344
