16

C      -0.006193    1.472188    0.081015
C       0.013934   -0.012992   -0.010242
C       0.002421   -0.793222   -1.108957
C      -0.031995   -0.382414   -2.460507
C      -0.061358   -0.017952   -3.607286
C       0.032287   -2.211967   -0.686080
N       0.031631   -3.229012   -1.434661
O       0.061498   -2.238581    0.687874
C       0.052476   -0.906422    1.196342
H       0.878861    1.845730    0.611078
H      -0.032463    1.922747   -0.913059
H      -0.880405    1.819719    0.645662
H      -0.086897    0.282238   -4.625438
H       0.055978   -4.084347   -0.877743
H       0.950062   -0.744629    1.809970
H      -0.822933   -0.770865    1.847233
