19

O       0.466649    1.116383   -0.414065
C       0.209581   -0.111771    0.223018
C      -0.160678   -0.088047    1.741653
C      -1.387908   -0.938763    1.375163
O      -2.152457   -1.617086    2.002303
C      -1.190710   -0.682601   -0.117825
C      -2.275216    0.220816   -0.789446
C      -2.857404   -1.050665   -1.459541
C      -1.527832   -1.787719   -1.146836
H       1.335035    1.427288   -0.139944
H       0.999524   -0.847240    0.014011
H       0.538235   -0.509600    2.467907
H      -0.455656    0.918139    2.059196
H      -2.927037    0.796762   -0.128670
H      -1.801121    0.898987   -1.502172
H      -3.688046   -1.465784   -0.884280
H      -3.156285   -0.971263   -2.506813
H      -0.830403   -1.768787   -1.989715
H      -1.593977   -2.806042   -0.756456
