16

C      -0.303695    1.514585    0.078773
C       0.101807    0.036700   -0.046166
C       0.765394   -0.484021    1.201430
C       0.179763   -1.452396    2.018347
N       0.764444   -1.904264    3.132257
C       1.948108   -1.389288    3.442060
C       2.523016   -0.421158    2.616532
F       3.708612    0.079977    2.942165
N       1.964422    0.032358    1.523466
H       0.568377    2.128917    0.317513
H      -0.735701    1.875854   -0.858725
H      -1.045592    1.654084    0.871425
H      -0.774348   -0.579050   -0.273884
H       0.803062   -0.075135   -0.880981
H      -0.787662   -1.876734    1.765841
H       2.452801   -1.733922    4.339059
