21

C       0.060380    1.263188    0.063980
C       0.128932   -0.246814   -0.182777
C       1.232893   -0.610425   -1.177595
O       1.403029   -2.006773   -1.364132
C       0.418418   -2.628093   -2.158732
C       0.881131   -4.070308   -2.425660
O      -0.139010   -4.797682   -3.047920
C       2.138516   -4.083106   -3.271484
O       2.185996   -4.694025   -4.313664
H       1.005640    1.643842    0.466587
H      -0.148374    1.809816   -0.862344
H      -0.728807    1.510763    0.779373
H       0.320731   -0.778406    0.756564
H      -0.839651   -0.601806   -0.553910
H       1.046216   -0.120441   -2.147715
H       2.197821   -0.246618   -0.807091
H      -0.559714   -2.675763   -1.660706
H       0.280569   -2.094941   -3.113806
H       1.148894   -4.507557   -1.447429
H       0.255480   -5.148286   -3.862852
H       2.995996   -3.501683   -2.886783
