17

C      -0.067805    1.482358    0.127533
N      -0.021945    0.036957    0.098526
C      -1.263117   -0.717316    0.402274
C      -0.429741   -1.626078    1.273265
N      -0.531573   -2.746672    1.841530
O      -1.806968   -3.299126    1.642152
C       0.735662   -0.647700    1.190024
C       2.068761   -1.118964    0.857915
C       3.177257   -1.500686    0.595843
H       0.939489    1.882630   -0.023518
H      -0.699485    1.846068   -0.689015
H      -0.464216    1.889646    1.077334
H      -2.012433   -0.151920    0.981008
H      -1.754130   -1.168136   -0.465948
H      -1.735566   -4.145527    2.096870
H       0.779817   -0.036991    2.110364
H       4.152023   -1.847720    0.356628
