18

N       0.226751    0.984384    0.632897
C       0.076897   -0.129896    0.079614
O       0.971177   -0.933770   -0.590287
C      -0.040858   -1.976687   -0.784103
C       0.326845   -3.266797   -0.072780
O       0.103842   -3.198976    1.319002
C      -1.272076   -2.998777    1.601906
C      -1.731414   -1.578838    1.242676
C      -1.096973   -1.078520   -0.073179
H       1.188375    1.318186    0.551051
H      -0.197721   -2.142944   -1.853642
H      -0.254357   -4.095580   -0.513755
H       1.390632   -3.475929   -0.219959
H      -1.870032   -3.746308    1.053530
H      -1.402237   -3.187418    2.670614
H      -2.823569   -1.561121    1.177506
H      -1.448558   -0.883861    2.038503
H      -1.848594   -0.683528   -0.758757
