17

C      -0.186923    1.536578    0.075837
C       0.086303    0.039730    0.030132
C       0.799709   -0.434470   -1.299365
C       1.514325   -1.695883   -0.793364
C       3.030411   -2.021050   -0.635628
O       2.922192   -1.841098    0.836577
C       1.691135   -1.281778    0.625772
N       1.019343   -0.350922    1.144372
H       0.750409    2.098868    0.014550
H      -0.828099    1.837801   -0.759760
H      -0.683959    1.810498    1.010062
H      -0.864190   -0.500895    0.147122
H       0.102891   -0.603964   -2.123890
H       1.518113    0.334320   -1.606729
H       0.928371   -2.607835   -0.932882
H       3.347833   -3.036135   -0.877805
H       3.721084   -1.278576   -1.043575
