15

N      -0.162095    1.302263   -0.017494
C       0.055224   -0.045836    0.004544
O       1.150995   -0.573939    0.002377
C      -1.200506   -0.841548   -0.018479
C      -1.572162   -2.243064    0.510510
C      -2.732932   -2.297411   -0.491344
C      -2.922597   -1.676279    0.869055
N      -2.556907   -0.279891    0.353177
C      -2.334741   -0.890509   -0.996115
H       0.638929    1.902824    0.093985
H      -1.068960    1.644880    0.261619
H      -0.989404   -3.042850    0.940897
H      -3.202065   -3.151002   -0.957200
H      -3.612703   -1.871977    1.679095
H      -2.490347   -0.344026   -1.918569
