15

C      -0.104684    1.496029    0.055547
C      -0.004038    0.014727   -0.041909
C      -0.092125   -0.785214   -1.124841
C       0.123082   -2.198253   -0.748327
O       0.371114   -3.141493   -1.464336
C       0.064098   -2.282138    0.780479
O       0.973666   -3.185652    1.330100
C       0.282596   -0.817233    1.180067
O       0.621828   -0.386170    2.251596
H       0.747628    1.889018    0.619232
H      -0.149043    1.971817   -0.925907
H      -0.999629    1.777281    0.623397
H      -0.248642   -0.471164   -2.150467
H      -0.980477   -2.527734    1.053546
H       1.120731   -3.859445    0.650928
