14

O      -0.540558    1.350950    0.295225
C      -0.188038    0.058874    0.118223
C       0.137225   -0.532082   -1.076720
C       0.176739    0.008081   -2.471560
C       1.286030   -0.544929   -3.254762
N       2.144954   -1.034591   -3.853000
N       0.402345   -1.852415   -0.735208
C       0.242523   -1.968386    0.604674
N      -0.125666   -0.825835    1.153077
H      -0.676986    1.470849    1.242910
H      -0.752043   -0.191317   -3.025785
H       0.277085    1.097308   -2.422116
H       0.744151   -2.560940   -1.364460
H       0.407202   -2.895376    1.131607
