17

C      -0.461413    0.202494   -0.872985
C       0.154590    0.504043    0.493032
N       0.634394   -0.728568    1.115748
C       0.356051   -0.972203    2.308960
O      -0.363339   -0.260524    3.253640
C      -0.306475   -1.384212    4.192265
C       0.594794   -2.166128    3.215702
O       0.071128   -3.394494    2.780745
H      -1.342604   -0.438257   -0.769278
H      -0.768839    1.128260   -1.369315
H       0.258674   -0.314694   -1.513592
H       1.019389    1.167132    0.362126
H      -0.565602    1.035263    1.128957
H       0.131280   -1.078105    5.144171
H      -1.291746   -1.833770    4.331790
H       1.635835   -2.259100    3.553590
H       0.311636   -3.489911    1.851801
