23

C       0.011861    1.543586    0.002533
C       0.002626    0.009698    0.007449
C      -1.449297   -0.503974    0.002776
C       0.788792   -0.577153   -1.204715
C       1.338431   -1.942632   -0.739249
C       1.529856   -1.784320    0.763272
O       1.543219   -2.938042    1.551494
C       2.252127   -0.549702    1.243217
C       0.732439   -0.592699    1.210944
H       1.033209    1.933562    0.060135
H      -0.447852    1.936622   -0.911697
H      -0.548524    1.945943    0.853808
H      -1.996584   -0.120192   -0.865313
H      -1.488037   -1.597521   -0.027823
H      -1.983089   -0.179889    0.903072
H       0.158712   -0.661148   -2.095230
H       1.614449    0.091533   -1.469882
H       0.608486   -2.743320   -0.902699
H       2.255847   -2.226718   -1.268420
H       2.409271   -3.349751    1.459430
H       2.700106   -0.621418    2.228401
H       2.798934    0.074845    0.543353
H       0.220354   -0.616005    2.167395
