17

C      -0.148486    1.539893   -0.162827
C       0.109089    0.039011   -0.076408
C       1.268978   -0.603060   -0.910023
C       1.804075   -1.273898    0.362196
C       2.173128   -0.253986    1.376878
O       2.791073    0.939345    0.974975
C       0.711361   -0.560482    1.206243
H       0.774639    2.105970   -0.020705
H      -0.561612    1.808458   -1.141810
H      -0.870662    1.859537    0.597621
H      -0.818453   -0.497009   -0.303565
H       0.911576   -1.312546   -1.658729
H       1.961606    0.097718   -1.382950
H       2.161074   -2.295260    0.423869
H       2.592986   -0.680464    2.289701
H       2.541228    1.626366    1.601688
H       0.125996   -0.946049    2.034960
