17

O       0.348671    0.884081    0.777782
C      -0.032462    0.009814   -0.266108
C      -1.477041   -0.457704   -0.153187
N      -2.474826    0.342329   -0.123662
O      -2.059307    1.694356   -0.212124
C      -1.745488   -1.912657   -0.031664
C      -2.160010   -2.482648    1.319596
C      -3.135131   -2.451738    0.176902
H      -0.266794    1.626253    0.733481
H       0.104709    0.472688   -1.257080
H       0.635506   -0.853750   -0.208918
H      -2.894547    2.169173   -0.158340
H      -1.057426   -2.529263   -0.603200
H      -1.732057   -3.432563    1.620043
H      -2.301344   -1.770760    2.124592
H      -3.938609   -1.727109    0.215369
H      -3.383742   -3.387323   -0.311198
