15

C      -0.412101    1.429009    0.026976
C       0.190453    0.050305   -0.070103
O       1.477416    0.028554   -0.714926
C       2.053653   -0.804096    0.293133
C       0.803995   -0.631068    1.225351
C       1.029194    0.279630    2.342654
N       1.224956    1.024723    3.203276
C       0.148835   -1.857127    1.662467
N      -0.374905   -2.841574    1.963664
H       0.253940    2.119286    0.549467
H      -0.588685    1.809618   -0.983432
H      -1.371187    1.390570    0.552669
H      -0.499932   -0.654039   -0.551482
H       2.189899   -1.841262   -0.032882
H       2.989049   -0.402673    0.690330
