21

O       0.725470   -0.487031    1.270499
C       0.169728   -0.118158    0.007347
C      -1.249905   -0.620536   -0.029299
C      -1.967413   -1.238886   -1.226339
C      -1.177323   -1.775487   -2.412155
C      -0.149244   -2.786936   -1.830045
C      -0.645800   -3.150534   -0.407737
C      -1.654179   -2.075739   -0.015724
O      -2.690032   -2.458090    0.843049
H       1.601901   -0.095020    1.335338
H       0.169827    0.976727   -0.113504
H       0.768757   -0.527039   -0.815814
H      -1.922483   -0.024235    0.582883
H      -2.982614   -0.898355   -1.397740
H      -1.874271   -2.283802   -3.087720
H      -0.689490   -0.990462   -3.000700
H      -0.062155   -3.674400   -2.462919
H       0.849908   -2.346047   -1.789869
H      -1.183793   -4.104381   -0.408671
H       0.178286   -3.236149    0.307869
H      -2.341147   -2.446142    1.741105
