23

C      -0.002277    1.489510    0.139149
C      -0.104330   -0.015496   -0.119960
C       0.851808   -0.483398   -1.209275
O       0.696327   -1.881255   -1.373134
C       1.421045   -2.456983   -2.451848
C       2.908234   -2.623354   -2.129581
C       0.751280   -3.808518   -2.738170
C      -0.672240   -3.665715   -3.231601
O      -1.133883   -4.277645   -4.161720
H       1.006690    1.772759    0.458766
H      -0.238947    2.067494   -0.761004
H      -0.697548    1.800106    0.924072
H       0.113859   -0.574962    0.796912
H      -1.125862   -0.283292   -0.413310
H       0.635727    0.035293   -2.159039
H       1.887462   -0.230328   -0.932163
H       1.319080   -1.808785   -3.339523
H       3.435188   -3.078287   -2.973981
H       3.381880   -1.659866   -1.922505
H       3.035972   -3.265774   -1.252478
H       1.319277   -4.390888   -3.468265
H       0.725789   -4.370098   -1.793547
H      -1.283634   -2.936100   -2.658752
