19

O      -0.574495    0.556386   -0.332040
C      -0.151629    1.642274   -0.022623
C       1.328141    1.950251    0.140685
C       1.910458    2.691903   -1.106828
C       1.806994    4.197932   -0.816522
C       0.412202    4.834118   -0.966638
O       0.171497    4.755418    0.456368
C       1.533820    4.321575    0.707417
C       1.609255    2.924105    1.311169
H      -0.836148    2.496814    0.165217
H       1.824393    0.985263    0.270877
H       2.962981    2.409433   -1.212363
H       1.410521    2.402374   -2.036523
H       2.632839    4.769933   -1.240087
H       0.415554    5.873923   -1.316554
H      -0.328902    4.266747   -1.543678
H       2.087944    5.077505    1.274140
H       0.913003    2.810938    2.148316
H       2.619841    2.751763    1.699419
