17

C      -0.075276    1.569352   -0.076431
C      -0.015486    0.052871   -0.044730
C      -1.170249   -0.631840   -0.556325
C      -2.133352   -1.208138   -0.990383
C       1.330266   -0.639093   -0.236065
O       2.470112    0.117300   -0.450047
C       0.693311   -0.663670    1.142050
C       1.322390    0.098106    2.174856
C       1.919720    0.734839    3.005236
H       0.879822    2.001412    0.222742
H      -0.300897    1.907739   -1.091432
H      -0.856246    1.941694    0.592190
H      -2.985210   -1.710587   -1.376658
H       1.321914   -1.569901   -0.796247
H       2.847573    0.350024    0.409052
H       0.240568   -1.598844    1.453552
H       2.405945    1.297561    3.763661
