15

C       0.064211    1.457971    0.042134
C      -0.075124   -0.019692   -0.007605
C      -1.157808   -0.837264   -0.204613
C      -0.615632   -2.151040   -0.136626
C       0.725792   -2.046232    0.091308
O       1.091073   -0.742433    0.176069
C       1.269404   -3.358254    0.159584
C       0.181724   -4.164670   -0.038066
O      -0.983267   -3.451961   -0.221723
H       0.749119    1.823869   -0.731634
H      -0.909810    1.926870   -0.113608
H       0.455796    1.792948    1.009686
H      -2.172308   -0.513672   -0.369824
H       2.283333   -3.683374    0.324671
H       0.071487   -5.235337   -0.075686
