15

O       1.166238    2.634428    1.303147
C       0.255451    2.095648    0.731116
C       0.503369    0.919783   -0.138443
N       0.750657   -0.018751   -0.767087
C      -1.213953    2.519464    0.824020
N      -1.847042    2.429706   -0.487930
C      -3.080334    1.627317   -0.412687
C      -3.031456    1.056868    0.977164
C      -2.008107    1.546718    1.669745
H      -1.202232    3.529199    1.260646
H      -1.972391    3.328243   -0.929042
H      -3.990080    2.229182   -0.565856
H      -3.088367    0.840206   -1.179274
H      -3.761126    0.344926    1.342236
H      -1.737506    1.313894    2.691280
