18

C       0.030900    1.581440    0.010741
C       0.011410    0.052452    0.002520
C       0.694429   -0.515934   -1.245525
N       0.735385   -1.966169   -1.173627
C       0.926443   -2.687784   -0.014048
O       1.183385   -3.879877   -0.020983
N       0.740375   -1.978648    1.153970
C       0.699125   -0.529307    1.241798
H       1.057528    1.964887    0.010859
H      -0.476768    1.987004   -0.870012
H      -0.473400    1.977457    0.897753
H      -1.027426   -0.299868    0.002561
H       0.138959   -0.222651   -2.143373
H       1.703865   -0.079663   -1.336477
H       0.981922   -2.488045   -1.999142
H       0.989948   -2.509439    1.972855
H       1.708739   -0.093688    1.333853
H       0.146816   -0.246019    2.144796
