25

C      -0.068644    1.556840    0.049697
C      -0.065038    0.028820   -0.048174
C       0.731965   -0.494541   -1.247399
C       0.735790   -2.021838   -1.358092
C       1.593097   -2.552757   -2.515430
O       2.949059   -2.114015   -2.405036
C       1.500134   -4.058672   -2.646552
C       0.448044   -4.684670   -3.528991
C       1.900225   -4.728620   -3.933267
H       0.950156    1.949003    0.143689
H      -0.513331    2.009288   -0.843775
H      -0.640318    1.902276    0.916943
H       0.350078   -0.396142    0.875776
H      -1.099045   -0.336853   -0.109012
H       0.318561   -0.066972   -2.171912
H       1.768358   -0.142303   -1.189565
H       1.108552   -2.460476   -0.419322
H      -0.289100   -2.395706   -1.480737
H       1.243135   -2.100128   -3.453161
H       3.333268   -2.552355   -1.637621
H       1.732259   -4.596806   -1.728279
H      -0.026526   -5.601001   -3.195906
H      -0.211817   -4.020284   -4.077951
H       2.222715   -4.089148   -4.748031
H       2.420969   -5.678322   -3.881778
