18

O      -0.298500    1.315663    0.131906
C      -0.006984   -0.067725    0.044514
C       0.734914   -0.450238   -1.249702
C      -0.065244   -0.075901   -2.500792
C       0.690954   -0.396271   -3.800468
C      -0.069905    0.072199   -5.021726
O      -0.374278   -0.624125   -5.954212
C       0.749022   -0.525733    1.228609
N       1.370779   -0.859805    2.143528
H       0.532438    1.794637    0.233915
H      -0.983572   -0.565654    0.059077
H       1.711178    0.052440   -1.255844
H       0.940127   -1.526855   -1.230807
H      -1.022126   -0.613383   -2.494722
H      -0.309727    0.991340   -2.461912
H       1.657000    0.130291   -3.794186
H       0.890987   -1.466882   -3.903294
H      -0.346697    1.153135   -4.998584
