17

N       0.012280    1.441653    0.155558
C      -0.008287    0.038325    0.046378
C      -1.117205   -0.793144    0.030693
C      -2.560247   -0.841896    0.039134
C      -2.968383   -2.125504    0.006129
C      -1.768311   -3.055471   -0.027127
N      -0.664896   -2.106544   -0.005829
C       0.693482   -2.129634   -0.012331
C       1.133347   -0.816248    0.020343
H       0.835506    1.842839   -0.275576
H      -0.807426    1.876926   -0.248131
H      -3.204319    0.026545    0.072091
H      -3.985698   -2.488585    0.004439
H      -1.737003   -3.730643    0.838893
H      -1.746679   -3.680398   -0.930478
H       1.251016   -3.052348   -0.041544
H       2.165549   -0.498004    0.029965
