14

C      -0.005016    1.421276   -0.009902
N      -0.004468   -0.024719    0.020496
N       0.103276   -0.755905   -1.142513
C       0.130522   -2.035075   -0.791997
C       0.047422   -2.173824    0.618375
C      -0.029467   -0.869248    1.062143
O      -0.119687   -0.752366    2.382696
N      -0.106316   -2.103566    2.886769
C      -0.009575   -2.894135    1.844619
H       1.004093    1.812522   -0.172249
H      -0.654198    1.759637   -0.819048
H      -0.385963    1.791846    0.943524
H       0.203250   -2.789863   -1.560232
H       0.015191   -3.959069    2.031353
