16

N       0.241906    1.440722   -0.054610
C       0.044733    0.046354   -0.045886
C      -1.046227   -0.787574    0.022434
O      -2.344390   -0.402423    0.083665
N      -0.683971   -2.101920    0.034195
C       0.638752   -2.092539   -0.033229
C       1.526244   -3.292876   -0.098113
O       2.835681   -2.880273    0.275409
N       1.122854   -0.834538   -0.088535
H      -0.183382    1.883917    0.753152
H      -0.160340    1.875447   -0.879077
H      -2.860902   -1.215260    0.136840
H       1.126008   -4.067807    0.570968
H       1.523257   -3.710971   -1.117883
H       3.449637   -3.581767    0.042127
H       2.097171   -0.581327   -0.094183
