15

C       0.013372    1.486802    0.069052
C       0.000976   -0.006729   -0.050492
C      -1.011314   -0.933785    0.689588
C      -1.022859   -2.244944   -0.090165
N       0.486939   -2.104090   -0.249626
C       0.444726   -1.104811    0.917265
C       0.536642   -0.892578   -1.124833
O       0.993743   -0.761461   -2.215611
H       0.995828    1.890228   -0.193836
H      -0.725364    1.938983   -0.600363
H      -0.222440    1.804325    1.089493
H      -1.757358   -0.497077    1.343920
H      -1.250615   -3.111974    0.534418
H      -1.568559   -2.307969   -1.037872
H       1.131537   -1.077715    1.749454
