11

N      -0.085025    1.331433    0.008700
C       0.101783   -0.000748    0.001438
O       1.142208   -0.607957   -0.009537
N      -1.148080   -0.722700    0.010377
C      -1.343213   -2.059106    0.008085
N      -2.631378   -2.299125    0.017843
N      -3.236907   -1.072298    0.027594
N      -2.367615   -0.126879    0.023349
H       0.727494    1.923203    0.003036
H      -1.013239    1.722851    0.017494
H      -0.540051   -2.775762   -0.001311
