18

C      -0.032135    1.756107   -0.171009
C       0.041436    0.247372   -0.026767
O       0.885960   -0.275764   -1.038981
C       1.605992   -1.357366   -0.465582
C       1.815527   -0.873990    0.966971
O       0.620557   -0.137086    1.227918
C      -1.375859   -0.383678   -0.175390
N      -1.684186   -1.318524    0.763318
O      -2.102304   -0.067608   -1.095073
H       0.976813    2.173876   -0.150070
H      -0.518581    2.001918   -1.115840
H      -0.616874    2.182177    0.648397
H       1.020460   -2.287142   -0.493874
H       2.529734   -1.493346   -1.031528
H       1.903162   -1.680013    1.700632
H       2.692380   -0.218299    1.046715
H      -1.118115   -1.371792    1.593219
H      -2.622218   -1.685767    0.770310
