20

C       0.000430    1.506075   -0.014685
N      -0.048729    0.066305    0.085509
C      -1.300710   -0.584006    0.504660
C      -0.468401   -1.617214    1.320071
C      -0.930608   -1.963228    2.725705
O      -0.142680   -2.775327    0.582840
C       0.700990   -0.582622    1.183657
C       2.046321   -1.036701    0.883960
C       3.174112   -1.387836    0.662184
H       1.023477    1.822933   -0.241324
H      -0.645332    1.842462   -0.832533
H      -0.323268    2.020298    0.911761
H      -1.934856    0.046592    1.150406
H      -1.904933   -0.983707   -0.317200
H      -1.848772   -2.563197    2.690871
H      -0.162377   -2.549055    3.239552
H      -1.143378   -1.066785    3.314944
H      -0.918059   -3.346803    0.572359
H       0.727023    0.046107    2.092378
H       4.162027   -1.714090    0.450117
