20

C       0.053157    1.617697   -0.127912
C       0.023926    0.081952   -0.011366
C      -1.355741   -0.490334    0.059482
C      -2.158129   -0.839102    1.130331
C      -1.881937   -0.764858    2.597197
N      -3.345302   -1.301785    0.645852
N      -3.328302   -1.259608   -0.655041
N      -2.128058   -0.766671   -1.026942
C      -1.819580   -0.633760   -2.434742
H       1.084156    1.983007   -0.157491
H      -0.451578    1.959860   -1.036742
H      -0.450632    2.081751    0.724747
H       0.570537   -0.359164   -0.853821
H       0.564429   -0.219853    0.892065
H      -2.016241    0.249208    2.991875
H      -2.572952   -1.421575    3.130492
H      -0.858940   -1.075273    2.834253
H      -1.634705    0.410799   -2.701532
H      -0.941956   -1.230505   -2.700998
H      -2.685349   -1.000056   -2.986150
