13

N      -0.033613    1.420400    0.156832
C      -0.047819    0.036955    0.055102
C      -1.179091   -0.730926    0.033297
O      -2.389499   -0.133171    0.042086
N      -1.168252   -2.097766    0.000210
C      -0.019303   -2.665826   -0.018980
O       1.160428   -2.036870   -0.020002
C       1.229294   -0.630985    0.002240
O       2.313323   -0.107167   -0.030642
H       0.844207    1.820532   -0.146008
H      -0.846108    1.881850   -0.225183
H      -3.050780   -0.837081    0.015494
H       0.087553   -3.744256   -0.038792
