20

O      -0.174417    1.369399   -0.721561
C      -0.000954    0.169310    0.020100
C      -1.344599   -0.506976    0.107726
C      -1.836158   -1.394345   -1.008541
C      -1.508770   -1.992036    0.340926
C      -0.345379   -2.945365    0.518303
C      -0.754098   -4.392439    0.163350
C       0.344359   -5.341990    0.324834
N       1.227505   -6.075385    0.458303
H       0.659187    1.849308   -0.711961
H       0.733107   -0.490625   -0.466938
H       0.375552    0.382909    1.033607
H      -2.094051    0.121613    0.580673
H      -2.872601   -1.323402   -1.318238
H      -1.142240   -1.587064   -1.821792
H      -2.368793   -2.253540    0.954399
H       0.498446   -2.657132   -0.115123
H       0.016765   -2.923278    1.552607
H      -1.589400   -4.715767    0.795512
H      -1.109203   -4.436572   -0.872300
