16

C      -0.540391    1.301020    0.161600
C       0.240557    0.014792    0.011823
C       0.951764   -0.267578   -1.333388
C       2.230576   -0.322901   -0.477489
O       1.524404    0.063167    0.705065
C       2.846896   -1.705840   -0.325578
F       3.448426   -2.069097   -1.471630
F       3.763622   -1.727763    0.646133
F       1.922042   -2.633313   -0.038343
H       0.034568    2.153446   -0.213093
H      -1.481705    1.240549   -0.395570
H      -0.778121    1.482102    1.214365
H      -0.344526   -0.838494    0.375967
H       0.677801   -1.188997   -1.846476
H       0.928362    0.566488   -2.036117
H       3.039247    0.371462   -0.732535
