21

O      -0.052279    1.394196   -0.034816
C       0.027673   -0.019210    0.016143
C       0.645131   -0.566178    1.334804
C      -0.053691   -1.936263    1.565643
C      -1.033735   -2.084158    0.373877
C      -1.379967   -0.627384    0.040687
O      -0.435991   -2.708455   -0.763764
C       0.797657   -2.128024   -1.157575
C       0.749030   -0.591877   -1.218728
H       0.843407    1.742060   -0.104630
H       1.735451   -0.651601    1.276600
H       0.413093    0.142243    2.134672
H       0.638345   -2.780997    1.612111
H      -0.619049   -1.933731    2.501748
H      -1.900221   -2.704610    0.611002
H      -1.976255   -0.167618    0.836292
H      -1.911714   -0.525935   -0.908056
H       1.600890   -2.440820   -0.472029
H       1.030652   -2.551906   -2.138618
H       0.215815   -0.255873   -2.114360
H       1.775965   -0.206138   -1.278892
