20

C      -0.771081    1.186820   -0.127832
C      -0.025498   -0.139471   -0.102293
C       1.286773   -0.282019   -0.926524
O       1.902907    0.985758   -1.096949
C       1.937252   -1.056099    0.274135
O       3.249311   -0.690533    0.605699
C       0.778592   -0.551549    1.145481
C       0.896603    0.180339    2.425138
N       0.316452   -1.180014    2.375842
H      -0.093468    2.020911    0.065953
H      -1.242519    1.354703   -1.101477
H      -1.564437    1.200744    0.628157
H      -0.701432   -0.956487   -0.384534
H       1.206253   -0.811662   -1.882669
H       2.730697    0.839292   -1.567131
H       1.922826   -2.142302    0.148491
H       3.255565    0.275524    0.609580
H       1.863006    0.239634    2.918256
H       0.238169    1.027532    2.598763
H      -0.698940   -1.122418    2.433871
