19

C      -0.024203    1.522898   -0.043907
O       1.267164    2.100113    0.081125
C       2.368637    1.180837    0.011341
C       2.585761    0.514922    1.393228
O       1.831146   -0.662571    1.597187
C       0.435892   -0.528215    1.421230
C       0.006864   -0.015271    0.013611
C       0.973829   -0.475564   -1.052213
C       2.155467    0.138551   -1.061130
H      -0.648643    1.922853    0.766670
H      -0.469232    1.836566   -0.998573
H       3.238845    1.809953   -0.199421
H       3.631446    0.207246    1.497732
H       2.362044    1.271385    2.162483
H       0.036686   -1.533630    1.583359
H       0.005132    0.135715    2.190499
H      -1.009018   -0.378458   -0.174771
H       0.693471   -1.237448   -1.771523
H       2.941099   -0.077809   -1.776610
