20

C       0.131986    1.251760   -0.391411
N      -0.002733   -0.104225    0.135575
C       0.613920   -0.250721    1.456498
C      -1.353289   -0.596295    0.098019
C      -1.879901   -1.092366   -1.247252
C      -1.538785   -2.085513   -0.164711
N      -0.363620   -2.911963   -0.179081
C      -2.306393    0.053926    0.982261
N      -3.026451    0.602447    1.703929
H       1.193669    1.509136   -0.448924
H      -0.290130    1.300988   -1.398726
H      -0.372491    2.007698    0.233116
H       0.143723    0.390274    2.220286
H       0.539972   -1.292603    1.775588
H       1.671690    0.019433    1.386563
H      -2.918944   -0.896294   -1.485707
H      -1.182352   -0.995405   -2.072092
H      -2.377946   -2.544349    0.349176
H      -0.504739   -3.708857   -0.792551
H       0.415175   -2.372644   -0.545691
