14

C      -0.023888    1.511041    0.019042
C      -0.006774    0.007412    0.013225
C       0.024460   -0.688333   -1.194594
F       0.039499   -0.025650   -2.352544
C       0.039968   -2.076622   -1.193385
F       0.069720   -2.732613   -2.347235
C       0.023923   -2.748784    0.018103
C      -0.007168   -1.976711    1.174622
N      -0.022231   -0.641991    1.183300
H       0.858976    1.919356   -0.484250
H      -0.899465    1.899331   -0.512144
H      -0.044469    1.863503    1.050467
H       0.035544   -3.831391    0.042931
H      -0.020609   -2.461932    2.146687
