15

C      -0.015415    1.452856    0.054995
N       0.027031   -0.000397    0.048311
C       1.333471   -0.616837    0.179573
C      -1.142298   -0.688328   -0.076632
O      -2.244520   -0.177234   -0.186041
C      -1.042685   -2.147426   -0.077266
C      -1.124176   -3.354239   -0.094614
C      -1.188151   -4.717359   -0.111320
N      -1.233481   -5.878077   -0.124607
H       0.577537    1.854779   -0.775018
H      -1.051679    1.769890   -0.048843
H       0.396136    1.841300    0.994041
H       1.805162   -0.319031    1.123855
H       1.243301   -1.702694    0.162725
H       1.988535   -0.306868   -0.643610
