19

C      -0.251483    1.539996   -0.062892
C       0.099895    0.044552    0.026584
C       0.762601   -0.487309   -1.207554
C       2.019286   -0.972221   -1.340928
N       2.293671   -1.509365   -2.593111
C       1.158913   -1.191591   -3.470379
C       0.129819   -0.618262   -2.512257
N      -1.090595   -0.321852   -2.773311
O      -1.361265   -0.567735   -4.140831
H       0.649426    2.145547   -0.206019
H      -0.922686    1.724396   -0.905100
H      -0.746772    1.877496    0.853117
H       0.752774   -0.132173    0.889249
H      -0.822614   -0.521142    0.211354
H       2.780415   -1.025498   -0.571723
H       3.218854   -1.358541   -2.968105
H       1.421885   -0.457900   -4.243160
H       0.774234   -2.079638   -3.982689
H      -2.292875   -0.334984   -4.207013
