19

C      -0.064693    1.587064    0.042439
C       0.009163    0.049196    0.051468
C       0.774681   -0.463317    1.285118
C      -1.361791   -0.555534   -0.020253
C      -1.956898   -1.361679   -0.946578
C      -1.508259   -1.958215   -2.231729
O      -3.203605   -1.624264   -0.538406
N      -3.380064   -0.941502    0.705117
N      -2.306639   -0.344131    0.965182
H       0.939751    2.020099    0.081186
H      -0.562954    1.956035   -0.859030
H      -0.627151    1.947229    0.909052
H       0.552432   -0.272347   -0.846054
H       0.246996   -0.188066    2.203211
H       0.873455   -1.552807    1.267597
H       1.778257   -0.028159    1.322579
H      -1.561031   -3.051025   -2.193670
H      -2.144306   -1.626180   -3.058577
H      -0.478485   -1.668226   -2.448490
