19

C       0.080309    1.527004    0.169601
C      -0.017784    0.024834   -0.124711
C      -1.435656   -0.498661   -0.110623
C      -2.486090   -0.015612   -1.100500
C      -3.595539   -0.692295   -0.790964
C      -3.188780   -1.567339    0.376826
C      -1.717272   -2.035652    0.120643
O      -1.382344   -1.933314    1.546440
C      -2.191107   -0.743036    1.258160
H       1.121476    1.862640    0.150310
H      -0.473950    2.119581   -0.566111
H      -0.327493    1.763306    1.158085
H       0.434056   -0.188796   -1.102220
H       0.555144   -0.539358    0.619324
H      -2.330139    0.717800   -1.880147
H      -4.572842   -0.652104   -1.251221
H      -3.885586   -2.248596    0.861302
H      -1.344254   -2.903224   -0.431165
H      -2.393439   -0.051780    2.081046
