20

C      -0.059681    1.546732   -0.000170
C      -0.042007    0.020866    0.027899
C      -1.407316   -0.587221   -0.281149
C       1.108433   -0.593127   -0.827097
O       1.390369   -0.617995   -1.996062
N       1.705420   -1.117373    0.293971
C       0.715134   -0.615093    1.226960
C       0.992199   -0.061925    2.586796
C       0.183021   -1.343500    2.417857
H       0.923177    1.963258    0.238450
H      -0.345416    1.901062   -0.995348
H      -0.783097    1.944526    0.720633
H      -1.731175   -0.293505   -1.284352
H      -1.377608   -1.679907   -0.241141
H      -2.162746   -0.239958    0.432896
H       2.544301   -1.665131    0.418582
H       1.999531   -0.149174    2.981487
H       0.470632    0.838446    2.895721
H      -0.884118   -1.307235    2.612879
H       0.654590   -2.279311    2.700691
