15

C       0.007799    1.445143    0.010917
C      -0.004085   -0.062893   -0.030265
O       1.033447   -0.721651   -0.083616
C      -1.280375   -0.766355   -0.006237
N      -2.488456   -0.179316    0.052189
N      -3.341041   -1.195870    0.052484
C      -2.753799   -2.431684   -0.003033
C      -1.397018   -2.184859   -0.042811
O      -0.388985   -3.065241   -0.102842
H       1.037741    1.802505   -0.003929
H      -0.544848    1.848187   -0.843606
H      -0.504929    1.801435    0.909748
H      -4.327966   -1.000647    0.092209
H      -3.325048   -3.344096   -0.009380
H       0.422452   -2.517273   -0.115044
