16

O      -0.136367    1.332923    0.040252
C       0.023466    0.000424    0.059600
N       0.345983   -0.671573   -1.019057
O       0.415654   -2.007564   -0.592130
C       0.131247   -2.072534    0.723598
C      -0.129409   -0.825432    1.205188
C       0.153583   -3.394117    1.355701
C      -0.295960   -4.622451    0.582768
C       1.155878   -4.443483    0.905618
H       0.027726    1.632524   -0.864163
H      -0.388414   -0.530586    2.207159
H      -0.084962   -3.365421    2.412541
H      -0.864581   -5.367731    1.126972
H      -0.608347   -4.465338   -0.442757
H       1.822348   -4.165701    0.097765
H       1.600696   -5.063833    1.675184
