17

C       0.042701    1.387015   -0.250804
N      -0.164755   -0.047555   -0.287516
C      -1.264915   -0.638911    0.245821
O      -2.167544   -0.052281    0.816705
C      -1.256206   -2.157790    0.095279
C      -2.614483   -2.849468   -0.195540
N      -2.011121   -3.337517   -1.448806
C      -0.814286   -2.700499   -1.285371
O       0.169364   -2.571223   -1.973034
H       1.030808    1.627915    0.154607
H      -0.042530    1.831386   -1.249202
H      -0.725766    1.816633    0.392720
H       0.446064   -0.624290   -0.851937
H      -0.696429   -2.600202    0.923460
H      -2.901853   -3.643742    0.497608
H      -3.440601   -2.148526   -0.332046
H      -2.401482   -3.820976   -2.243977
