21

C      -0.034301    1.494422    0.035269
C       0.000256    0.038404    0.014052
C       0.032998   -1.166046    0.007995
C       0.031340   -2.629081   -0.010909
C      -1.408379   -3.167722    0.097084
C       0.766912   -3.172485   -1.281478
C       2.208054   -2.638445   -1.391879
C       0.766907   -4.634575   -1.300827
C       0.799830   -5.836863   -1.305262
H       0.743405    1.902823    0.690199
H       0.124045    1.911559   -0.965450
H      -0.999832    1.864639    0.397506
H       0.597808   -2.990667    0.858631
H      -1.886717   -2.794995    1.006267
H      -2.006895   -2.837598   -0.757927
H      -1.406727   -4.259894    0.120205
H       0.199987   -2.816380   -2.152581
H       2.204410   -1.546484   -1.412722
H       2.806486   -2.969122   -0.537200
H       2.685582   -3.010323   -2.301818
H       0.820389   -6.898368   -1.321595
