21

C      -0.180542    1.511495    0.056419
C       0.030945    0.003910    0.017730
C       0.860656   -0.627475   -1.171357
C       2.150485   -0.204585   -0.391480
C       1.234116   -0.603695    0.821095
O       1.444810   -0.175056    2.129026
C       1.029098   -2.100157    0.519178
C       0.781659   -2.119330   -0.795429
C       0.474376   -3.233306   -1.734958
H       0.720829    2.085553   -0.171201
H      -0.953176    1.804849   -0.662962
H      -0.521229    1.814558    1.051914
H      -0.917700   -0.506795    0.209291
H       0.691363   -0.340321   -2.208852
H       3.048879   -0.803685   -0.559015
H       2.381202    0.861624   -0.442072
H       2.219568   -0.628706    2.477551
H       1.054035   -2.905146    1.242010
H       0.468287   -4.199023   -1.221211
H      -0.505327   -3.096043   -2.210922
H       1.208986   -3.285852   -2.549076
