16

O      -0.003308    0.059307    0.573034
C       0.029845    1.172917    0.096055
C      -1.320397    1.824194   -0.225584
O      -1.340081    3.158157   -0.733366
C      -0.748657    3.391545   -1.947041
N       0.463166    3.256247   -2.261809
C       1.482391    2.852208   -1.355392
C       1.543668    3.331882    0.065182
C       1.311682    1.850661   -0.198226
H      -1.834345    1.147068   -0.920672
H      -1.903412    1.849194    0.698063
H      -1.452952    3.798402   -2.672213
H       2.437340    2.744891   -1.858208
H       2.511436    3.605043    0.469690
H       0.709881    3.913518    0.434684
H       2.154299    1.189923   -0.026636
