15

C      -0.040965    1.396268   -0.123691
O      -0.004849   -0.020258    0.029808
C      -1.193254   -0.642033    0.072644
C      -1.409051   -1.975845    0.212088
O      -2.775004   -2.157899    0.203859
C      -3.296455   -0.923715    0.060157
C      -4.775656   -0.790121    0.015858
N      -2.402944    0.018925   -0.023285
H       1.001641    1.717261   -0.137060
H      -0.532829    1.682371   -1.058739
H      -0.568843    1.872938    0.708312
H      -0.790868   -2.847176    0.318647
H      -5.197989   -1.359434   -0.818708
H      -5.233228   -1.167353    0.936366
H      -5.034231    0.262040   -0.104445
