20

C       0.014706    1.466247   -0.213471
C       0.046721   -0.041220    0.063133
C       0.795108   -0.379314    1.379226
C       2.175006    0.100441    1.393962
N       3.265305    0.484557    1.386806
C      -1.355048   -0.621545    0.125433
C      -2.030307   -1.118879   -1.138583
C      -1.584406   -2.091910   -0.075823
O      -0.441388   -2.872553   -0.283254
H       1.025303    1.879173   -0.278032
H      -0.500897    1.672853   -1.155811
H      -0.517215    2.001455    0.582086
H       0.588889   -0.540735   -0.745702
H       0.267595    0.057863    2.236304
H       0.800899   -1.464790    1.517904
H      -2.001410   -0.140639    0.857007
H      -3.091283   -0.943344   -1.278177
H      -1.439692   -1.090403   -2.048989
H      -2.356175   -2.569611    0.527425
H      -0.653743   -3.559483   -0.923395
