18

N      -0.061844    1.255063    0.318004
C      -0.033551    0.030473   -0.003754
O       1.149172   -0.611535   -0.252285
C       1.130125   -1.856364   -0.957409
O       0.117535   -2.706937   -0.547420
C      -1.145491   -2.101827   -0.803656
C      -1.270499   -0.813040   -0.019102
C      -2.086869   -0.808572    1.266947
C      -2.608884   -0.122022    0.040985
H       0.883397    1.640432    0.327298
H       1.047098   -1.636949   -2.035727
H       2.085998   -2.335222   -0.739824
H      -1.245134   -1.913234   -1.885759
H      -1.912564   -2.822333   -0.510443
H      -2.533936   -1.749350    1.571874
H      -1.717949   -0.186439    2.073030
H      -2.588293    0.960306    0.019482
H      -3.427285   -0.586886   -0.500164
