20

C      -0.007281    1.480759    0.040847
C      -0.025063   -0.006793   -0.025068
C      -0.059733   -0.859734   -1.050485
C      -0.013100   -2.231870   -0.399611
C       0.091470   -3.440927   -1.296869
C      -0.894661   -2.170945    0.900857
C       0.175558   -3.013574    1.599590
N       1.044353   -2.067964    0.764437
C       0.034105   -0.949786    1.163126
H       0.900857    1.844126    0.538216
H      -0.048976    1.925974   -0.956879
H      -0.855395    1.866725    0.620833
H      -0.077460   -0.663822   -2.114297
H       1.009064   -3.389981   -1.892124
H       0.101493   -4.383169   -0.744039
H      -0.756912   -3.468887   -1.989253
H      -1.989902   -2.217172    0.975864
H       0.306045   -2.875469    2.676807
H       0.278445   -4.068745    1.338251
H       0.160696   -0.553099    2.172432
