18

C       0.090382    1.446246   -0.052790
O       1.245944    0.607936   -0.041420
C      -0.046673   -0.016292   -0.068004
C      -0.434351   -0.776445    1.155488
C      -1.695998   -1.589036    1.306477
C      -2.065679   -2.327194    0.011309
C      -0.661429   -3.016867    0.021161
C      -0.322770   -2.271937    1.319334
H      -0.101456    1.991095    0.871437
H      -0.067910    2.019008   -0.966109
H      -0.281748   -0.480482   -1.024567
H      -0.170473   -0.244447    2.067199
H      -2.376662   -1.407036    2.130079
H      -2.871068   -3.048912    0.162964
H      -2.322350   -1.709479   -0.855096
H      -0.739840   -4.096143    0.166325
H      -0.002495   -2.834971   -0.833522
H       0.220633   -2.695330    2.155703
