15

O       0.110767    0.086668    0.472702
C       0.067133    1.249936    0.146683
N       1.096595    1.915926   -0.489563
C       2.560927    1.676240   -0.205927
C       2.840037    2.957964   -1.041707
C       1.641145    3.275680   -0.094783
C       2.439867    2.582787    1.058312
C       0.825503    4.463307   -0.042420
N       0.183788    5.423068    0.011325
H      -0.839843    1.879538    0.236253
H       3.000618    0.688145   -0.297785
H       3.766758    3.490718   -0.830972
H       2.595762    2.907409   -2.101721
H       1.843492    2.187713    1.880704
H       3.342710    3.093071    1.399637
