17

C       0.287112    0.985779    0.367362
O      -0.410330   -0.030374   -0.335740
C       0.350073   -0.630011   -1.326789
C       1.457645   -1.654248   -1.029968
C       1.037156   -2.511408    0.126966
O       1.594414   -2.878462    1.122062
C      -0.318029   -2.883607   -0.521110
C       0.105823   -2.027111   -1.729305
O      -0.027442   -2.427475   -3.041340
H       1.179229    0.585050    0.866386
H       0.593275    1.800457   -0.304989
H      -0.399939    1.381698    1.117516
H       0.636856    0.032096   -2.147928
H       2.458338   -1.520824   -1.422782
H      -0.333362   -3.948652   -0.769682
H      -1.229135   -2.602204    0.010302
H      -0.873605   -2.107752   -3.374656
