20

C       0.207745    1.512483    0.136841
C      -0.182472    0.049790   -0.111785
C       0.583715   -0.540471   -1.279065
C       1.924335   -1.174561   -1.107235
O       2.419161   -1.243387    0.190478
C       0.716941   -2.060680   -1.483286
C       0.163402   -3.045192   -0.464165
C       0.678213   -2.514273   -2.848277
N       0.658982   -2.877053   -3.947882
H       1.269348    1.592631    0.389129
H       0.023801    2.130062   -0.748963
H      -0.370576    1.934623    0.964043
H       0.002401   -0.530630    0.794864
H      -1.256895   -0.018700   -0.320799
H       0.466972    0.015454   -2.205692
H       2.671321   -1.017737   -1.883300
H       3.051965   -1.968173    0.239052
H       0.463045   -2.757235    0.544177
H      -0.928536   -3.089826   -0.507578
H       0.548380   -4.050170   -0.660201
