19

C      -0.113314   -1.047362   -0.356699
C      -0.068235    0.132913   -0.131598
C       0.026981    1.562955    0.135471
C       1.474987    2.064153    0.145178
C       2.302380    1.994373   -1.179184
C       2.632142    3.509916   -1.058034
C       1.601629    4.427066   -1.730182
O       0.706060    4.328603   -0.594202
C       1.686912    3.597833    0.174759
H      -0.171262   -2.088835   -0.553961
H      -0.534414    2.127944   -0.617519
H      -0.445787    1.790967    1.100020
H       2.023678    1.592657    0.966823
H       3.168525    1.332388   -1.130021
H       1.722754    1.731611   -2.068979
H       3.677979    3.812001   -1.061245
H       1.934891    5.462754   -1.876657
H       1.142511    4.062281   -2.657519
H       1.905072    4.084969    1.129686
