20

C       0.029831    1.468285    0.023627
C       0.030720   -0.040024   -0.021141
C      -0.156710   -0.749969   -1.356857
C      -0.066844   -2.238023   -0.992812
C      -1.312382   -2.630328   -0.165073
N      -0.611644   -2.235367    1.102154
C      -0.435148   -0.769092    1.242080
C       1.020898   -0.814275    0.815033
C       0.721987   -2.255413    0.376718
H       0.794180    1.883516   -0.644135
H      -0.939405    1.874414   -0.287384
H       0.235747    1.838822    1.033281
H      -1.109435   -0.512611   -1.845493
H       0.648134   -0.448201   -2.040636
H       0.245502   -2.888425   -1.811737
H      -2.243408   -2.092453   -0.373942
H      -1.515703   -3.705552   -0.144483
H      -0.912885   -0.232608    2.055740
H       1.913922   -0.419428    1.281209
H       1.403635   -3.074788    0.606169
