19

C       1.580053    0.976173   -1.056934
C       0.902345   -0.253552   -0.489872
O      -0.190424   -0.673820   -1.245207
C       1.732013   -1.396470    0.161379
C       3.196040   -1.366300    0.304184
O       3.906633   -2.342350    0.213376
C       0.764376   -0.490112    0.974338
C       1.291012    0.480622    2.010391
O      -0.434836   -1.092825    1.348414
H       2.420256    1.324733   -0.454401
H       1.966583    0.759688   -2.059900
H       0.851501    1.788124   -1.142859
H       0.129255   -0.898462   -2.126539
H       1.319719   -2.380481   -0.036454
H       3.642540   -0.366742    0.507794
H       2.216299    0.974944    1.710440
H       0.535451    1.246265    2.211272
H       1.494567   -0.049423    2.948382
H      -0.274485   -1.590834    2.158152
