19

C      -0.425572    1.421758    0.097233
C       0.184033    0.028023   -0.083675
C       0.822081   -0.498075    1.200279
C       1.985716    0.207833    1.661285
C       2.957284    0.795658    2.061489
C      -0.089730   -1.086767    2.300469
O      -1.457217   -1.178628    2.076155
C       0.806530   -1.995054    1.506508
O       0.157048   -2.808242    0.561509
H       0.326908    2.138267    0.440167
H      -0.838021    1.789374   -0.847440
H      -1.232178    1.392968    0.835298
H      -0.582186   -0.674243   -0.418211
H       0.950114    0.045606   -0.866909
H       3.812575    1.320631    2.407725
H       0.150459   -0.847381    3.330943
H      -1.573851   -1.852352    1.391108
H       1.699915   -2.422970    1.953699
H       0.047638   -3.681673    0.953596
