17

C      -0.007553    1.539251    0.059348
C      -0.012603    0.039103    0.039594
C      -1.280337   -0.832468   -0.055953
C      -0.642167   -1.753277    1.016431
O      -1.074616   -2.640929    1.693051
C       0.623506   -0.946864    1.057365
C       1.178416   -0.781634   -0.368837
C       1.146249   -1.823013   -1.358758
C       1.122487   -2.684110   -2.197935
H       0.982025    1.930649    0.315151
H      -0.282207    1.943250   -0.921683
H      -0.724953    1.925430    0.791405
H      -2.171475   -0.346647    0.352945
H      -1.511535   -1.269151   -1.030052
H       1.266523   -0.776638    1.912972
H       2.108477   -0.216243   -0.355287
H       1.103516   -3.453221   -2.930053
