18

O       0.103639    0.163287    0.858305
C      -0.070383    1.289570    0.436283
C       1.091852    2.185931    0.144466
C       2.136296    2.284810    1.218421
N       2.411123    1.557166   -0.010304
C      -1.443196    1.852359    0.145007
C      -1.911626    1.692431   -1.334803
O      -3.005723    0.854038   -0.939809
C      -2.648530    0.948716    0.457699
H       0.903750    3.049700   -0.487063
H       2.670241    3.222815    1.339530
H       1.954832    1.721095    2.129294
H       2.279383    0.560506    0.168659
H      -1.510588    2.879735    0.511122
H      -2.245341    2.618918   -1.817494
H      -1.208427    1.174669   -1.999416
H      -2.377089   -0.022469    0.882172
H      -3.443941    1.411787    1.052256
