20

C       0.000476    1.438464   -0.357791
N      -0.001526    0.009323   -0.077527
C      -1.170530   -0.507229    0.715823
C      -0.886582   -2.014307    0.606197
C       0.419978   -1.890163    1.417934
O      -0.102473   -1.500251    2.719686
C      -0.378186   -0.231212    2.108873
C      -0.744327    0.856468    3.074357
C       0.792591   -0.382642    1.103795
H       0.962934    1.713167   -0.802772
H      -0.779743    1.658404   -1.093655
H      -0.161941    2.094092    0.514206
H      -2.158454   -0.111288    0.482898
H      -1.592949   -2.662174    1.128304
H      -0.763518   -2.316276   -0.434544
H       1.139566   -2.705652    1.454033
H       0.058063    1.014043    3.801477
H      -0.945618    1.799889    2.562372
H      -1.647941    0.569193    3.623978
H       1.815314   -0.026738    1.227876
