13

C      -0.056338    1.465449    0.082716
N       0.028940    0.026086   -0.048604
C       0.616243   -0.621132   -1.073014
C       1.233551    0.008212   -2.171753
N       1.778878   -0.717210   -3.123546
N       1.742448   -2.051747   -3.039053
N       1.166340   -2.639019   -2.012281
N       0.604162   -1.964871   -1.030094
H       0.936247    1.929510    0.133627
H      -0.608637    1.917924   -0.749906
H      -0.586595    1.699514    1.006460
H      -0.367024   -0.569034    0.663043
H       1.287301    1.087071   -2.282732
