19

C       0.013936    1.492415   -0.162449
O       1.455295    1.467824    0.092929
C       1.314416    0.195056    0.738983
C       2.189961   -1.043014    0.613226
C       1.242768   -2.035852    1.399291
C       0.150844   -1.116940    2.040698
C       0.930874    0.180823    2.243899
O      -0.839630   -0.719961    1.052888
C      -0.045423   -0.039312    0.093150
H      -0.522255    2.106452    0.569572
H      -0.203890    1.836742   -1.176587
H       2.346038   -1.346616   -0.424663
H       3.166297   -0.938934    1.095870
H       0.783243   -2.779120    0.743706
H       1.788214   -2.570535    2.181274
H      -0.380678   -1.558781    2.882315
H       1.798142    0.094140    2.903325
H       0.299815    1.013094    2.556284
H      -0.019045   -0.595761   -0.849901
