23

C       0.547752    0.885367    0.680816
C       0.173726   -0.407095   -0.068628
C      -1.305341   -0.667497   -0.106908
C      -2.145848   -0.558040   -1.145346
C      -1.835328   -0.132403   -2.544313
O      -2.284737   -1.154230   -3.435214
C      -3.558120   -0.968312   -0.779388
C      -3.527506   -1.019073    0.765446
C      -2.032200   -1.165166    1.129918
H       1.633894    1.017368    0.711628
H       0.112182    1.760817    0.188980
H       0.184672    0.869654    1.713219
H       0.582225   -0.362845   -1.083647
H       0.668894   -1.254972    0.424895
H      -2.360792    0.814779   -2.758731
H      -0.760029    0.059656   -2.671688
H      -2.228347   -0.808880   -4.331168
H      -4.312467   -0.271206   -1.164663
H      -3.792934   -1.943525   -1.224537
H      -3.908064   -0.074925    1.169070
H      -4.146928   -1.818787    1.179895
H      -1.756700   -2.213147    1.322612
H      -1.764936   -0.612184    2.038077
