16

N      -0.001187   -1.161978   -0.018680
C       0.003207   -0.006801   -0.017017
C      -0.008190    1.461039    0.029754
C      -0.733275    1.969775    1.298625
C      -0.516559    3.453539    1.453042
C       0.418591    4.118869    0.777638
C       1.373836    3.439647   -0.172809
N       1.358137    1.974352   -0.109839
H      -0.568875    1.811632   -0.847119
H      -1.803822    1.741701    1.231099
H      -0.364980    1.426040    2.179352
H      -1.173268    3.976132    2.143165
H       0.516560    5.196155    0.886994
H       1.154709    3.751816   -1.205633
H       2.401064    3.769126    0.020907
H       1.902955    1.665809    0.690056
