21

O      -0.005327    1.488771    0.441141
C       0.047765    0.117702    0.162670
C      -0.528618   -0.866272    1.150599
C      -1.255574   -0.560804   -0.147340
C      -2.556160    0.218593   -0.140150
C      -2.868774    0.918655   -1.492940
C      -4.404777    0.824435   -1.672897
C      -4.783517   -0.309403   -0.747790
C      -3.791068   -0.632750    0.078580
H       0.615438    1.671104    1.153908
H       0.923659   -0.192900   -0.407099
H      -0.046898   -1.829740    1.278323
H      -0.953715   -0.446296    2.057103
H      -1.208866   -1.333241   -0.911724
H      -2.484295    0.969982    0.657565
H      -2.488091    1.941802   -1.525401
H      -2.375233    0.364958   -2.299742
H      -4.909573    1.753075   -1.369605
H      -4.697746    0.645966   -2.713983
H      -5.770565   -0.759709   -0.746646
H      -3.837920   -1.389688    0.854520
