20

C       0.066922    1.526313    0.053710
C      -0.092207    0.033009   -0.264155
C      -1.495923   -0.452576   -0.036126
C      -1.972668   -1.012697    1.246850
N      -1.849365   -1.933108    0.095063
C      -3.062079   -1.658565   -0.758982
C      -2.684415   -0.177725   -0.964975
C      -3.008711   -2.541700   -1.987213
O      -3.063831   -2.145815   -3.122526
H       1.092890    1.857423   -0.130866
H      -0.596299    2.137069   -0.567981
H      -0.172744    1.735576    1.101373
H       0.189377   -0.155516   -1.307823
H       0.590572   -0.560387    0.354826
H      -1.231949   -1.206369    2.017227
H      -2.966162   -0.775135    1.623779
H      -4.005495   -1.870945   -0.234889
H      -3.398955    0.582674   -0.640648
H      -2.399572    0.015318   -2.001114
H      -2.901664   -3.622548   -1.747721
