19

C      -0.097962    1.575017   -0.168820
C      -0.025805    0.035017   -0.067956
C      -1.347130   -0.564435    0.101755
C      -2.439179   -1.049332    0.233837
C       0.685544   -0.536375   -1.271871
C       0.111955   -0.878422   -2.610549
C       0.899756   -1.922110   -1.834487
C       2.373858   -1.541417   -1.857990
O       2.073891   -0.191650   -1.401905
H       0.908154    1.980044   -0.303589
H      -0.713580    1.873744   -1.021459
H      -0.533183    1.999810    0.738991
H       0.583721   -0.218485    0.810449
H      -3.402043   -1.478442    0.362725
H      -0.958598   -1.052466   -2.626947
H       0.530017   -0.423999   -3.505001
H       0.483638   -2.874480   -1.536561
H       2.981101   -2.069759   -1.114574
H       2.887098   -1.544857   -2.826948
