15

C      -0.081550   -1.174231    0.075044
C      -0.037540    0.024206    0.000871
C       0.035533    1.455859   -0.115630
O      -0.770823    2.162675    0.949185
C      -1.296635    3.003388   -0.044842
C      -0.175294    3.584109   -0.998460
C       1.216256    3.394656   -0.533760
C       1.380110    2.144490   -0.078697
C      -0.800486    2.223631   -1.200959
H      -0.124071   -2.233193    0.145476
H      -2.209425    3.542223    0.175516
H      -0.473389    4.408447   -1.634711
H       1.948488    4.190823   -0.483502
H       2.242615    1.724422    0.419188
H      -1.253282    1.826398   -2.099719
