21

C      -1.594317   -0.473678    0.129434
C      -0.159740    0.058794    0.056625
C       0.656870   -0.597529   -1.049274
O       0.303419   -0.045401   -2.310431
C       2.107211   -1.019734   -1.052168
C       2.614746   -1.911506    0.116807
C       1.607458   -2.317203    1.167802
C       1.538814   -2.944746   -0.191670
C       1.002109   -2.043945   -1.330898
H      -2.073756   -0.401795   -0.850936
H      -1.607145   -1.525449    0.432642
H      -2.193633    0.094418    0.847489
H      -0.183090    1.133054   -0.176182
H       0.336166   -0.010126    1.024884
H       0.599612    0.871871   -2.313865
H       2.792777   -0.593820   -1.775210
H       3.673150   -2.079013    0.272753
H       2.038092   -2.973857    1.919888
H       0.834423   -1.675753    1.564854
H       1.657385   -4.011235   -0.336777
H       0.721410   -2.446280   -2.295448
