20

C       0.018443    1.543200    0.140232
C      -0.040140    0.022347   -0.021588
O       0.783494   -0.638179    0.933424
C      -1.459537   -0.496068    0.017416
C      -2.167064   -0.984716    1.253659
C      -1.987784   -1.905797    0.072707
N      -2.888268   -1.712024   -1.135904
C      -3.854245   -0.624736   -0.888868
C      -2.443656   -0.274339   -1.155739
H       1.053196    1.892295    0.083709
H      -0.561318    2.047080   -0.639744
H      -0.401056    1.843065    1.108586
H       0.394234   -0.246328   -0.993871
H       0.607919   -0.239643    1.792644
H      -1.490252   -1.247715    2.061016
H      -3.119639   -0.597949    1.597762
H      -1.464463   -2.850242    0.146503
H      -4.546825   -0.509834   -1.718395
H      -4.311445   -0.491730    0.084556
H      -2.124684    0.185374   -2.087219
