17

C      -0.357444    1.642425   -0.154421
C       0.110570    0.208007   -0.001923
C       0.883818   -0.471497   -1.211774
C       2.039038   -0.625954   -0.230672
C       3.191882   -1.111978    0.361824
O       4.248046   -1.825262   -0.122491
C       3.071462   -0.681624    1.712538
N       1.928323   -0.013574    1.958381
N       1.369175    0.015939    0.749476
H       0.441318    2.272811   -0.556169
H      -1.215940    1.689034   -0.832215
H      -0.665103    2.051416    0.812469
H      -0.689675   -0.430671    0.386451
H       0.430564   -1.400265   -1.567199
H       1.055009    0.194882   -2.061836
H       4.113904   -1.983249   -1.061030
H       3.792658   -0.834448    2.501726
