15

O       0.098104    1.324230    0.236060
C      -0.040433   -0.004892    0.146474
C      -1.082066   -0.833468    0.133665
C      -2.453047   -1.265647   -0.341036
C      -1.755369   -2.638495   -0.675644
N      -0.565582   -2.154308    0.070230
C       0.793200   -2.100925   -0.148253
N       1.587962   -3.030405   -0.465686
O       1.135930   -0.757401    0.106996
H       0.933272    1.570601   -0.181162
H      -3.212121   -1.343661    0.440994
H      -2.862593   -0.716832   -1.189799
H      -2.203225   -3.539613   -0.254136
H      -1.554544   -2.781010   -1.741581
H       2.541493   -2.686222   -0.542796
