16

O      -0.081998    1.330269    0.004782
C       0.021768   -0.043968    0.001404
C       0.667129   -0.972231    1.078332
C       0.043646   -1.917795   -0.002300
C      -1.209697   -0.975668    0.008642
C       0.651286   -0.968107   -1.088341
C       0.053837   -3.348622   -0.005134
C       0.061046   -4.551654   -0.007495
H       0.804786    1.706522   -0.001684
H       1.758566   -0.978375    1.145174
H       0.194448   -0.989109    2.062981
H      -1.812461   -0.988924    0.919467
H      -1.825675   -0.985488   -0.893341
H       0.164282   -0.981280   -2.066042
H       1.741630   -0.973966   -1.171139
H       0.067977   -5.613200   -0.009162
