18

N      -0.080339    1.460091    0.116779
C       0.083018    0.013701   -0.052385
C       0.884284   -0.350308   -1.241096
N       1.536079   -0.575496   -2.169276
C       0.713867   -0.580179    1.209525
N      -0.126651   -0.500074    2.417739
C       0.390280   -1.810186    2.881484
C       0.746674   -2.128104    1.405698
O      -0.244085   -2.837212    0.700780
H       0.828661    1.914312    0.083256
H      -0.618260    1.843267   -0.654843
H      -0.911208   -0.427181   -0.168446
H       1.724782   -0.158880    1.335905
H       0.017839    0.301729    3.019866
H       1.282739   -1.755588    3.520998
H      -0.352080   -2.460514    3.356964
H       1.693206   -2.628510    1.203367
H      -1.102854   -2.521667    1.005425
