16

O       0.000623   -0.016246   -0.197644
C      -0.014743    1.178241    0.027348
N      -1.174645    1.923787    0.185176
C      -1.090363    3.382556    0.144243
C      -0.047189    3.824652   -0.929711
C       1.004483    3.409074    0.146537
C      -0.049551    3.826038    1.210545
N       1.125564    1.952906    0.187671
H      -2.004614    1.465282   -0.154476
H      -2.092667    3.811043    0.147651
H      -0.039460    3.296863   -1.885975
H      -0.060696    4.905376   -1.085782
H       1.995612    3.862791    0.152127
H      -0.063395    4.906391    1.365033
H      -0.043853    3.293384    2.162499
H       1.967637    1.515547   -0.150071
