19

C      -0.428461    1.565500   -0.128210
C       0.022142    0.113289    0.010285
C      -1.146146   -0.854091   -0.164110
C       1.274623   -0.245031   -0.878149
C       2.047886   -0.493494    0.397494
C       0.880923   -0.160597    1.299698
N       3.250537   -0.852971    0.563500
O       3.553593   -0.963394    1.935895
H       0.411624    2.257042   -0.002221
H      -0.867251    1.749044   -1.115715
H      -1.183853    1.816373    0.625257
H      -1.606101   -0.741706   -1.152645
H      -0.819907   -1.894940   -0.063882
H      -1.922213   -0.673072    0.588365
H       1.148869   -1.123722   -1.518493
H       1.653510    0.577379   -1.493000
H       1.044622    0.705106    1.949525
H       0.540855   -0.992803    1.924439
H       4.476806   -1.237207    1.916719
