15

O       0.078026   -0.076946    0.046043
C       0.068976    1.125868    0.008967
C       1.292488    1.979024    0.000178
O       2.617740    1.379635    0.037410
C       2.866906    2.826595   -0.003524
C       1.745660    3.053273   -1.074882
C       1.051313    4.360175   -0.745129
C       1.032359    4.401278    0.590611
C       1.715898    3.117697    1.019618
H      -0.876356    1.711742   -0.022509
H       3.906111    3.162590    0.000907
H       1.909029    2.722786   -2.098787
H       0.672685    5.078355   -1.458548
H       0.634285    5.161621    1.247516
H       1.849856    2.850890    2.066117
