21

C       0.025681    1.578635    0.023335
C       0.040311    0.055270   -0.146295
C      -1.334831   -0.585012    0.032797
C      -1.485946   -2.104634   -0.078996
C      -1.142529   -2.762371    1.244252
O      -0.304860   -2.090067    2.162566
C      -1.002825   -0.898829    2.555410
C      -2.028036   -0.671682    1.446713
C      -2.473706   -2.119905    1.098337
H       1.021310    2.006522   -0.129163
H      -0.653060    2.050914   -0.696314
H      -0.307921    1.869877    1.025593
H       0.400573   -0.192763   -1.153875
H       0.753525   -0.401430    0.547523
H      -2.045490   -0.111835   -0.655952
H      -1.523689   -2.674811   -1.001702
H      -1.027638   -3.839372    1.270057
H      -1.492062   -1.048177    3.530406
H      -0.270615   -0.091385    2.653587
H      -2.786605    0.076249    1.674092
H      -3.446727   -2.575669    1.221681
