23

C       0.011699    1.616201   -0.007110
C       0.002069    0.086299    0.062102
C      -1.403449   -0.509681   -0.094117
C      -1.454667   -2.033846    0.020707
O      -0.692591   -2.652244   -1.009817
C      -1.169893   -2.697908    1.422721
C      -2.526159   -3.409297    1.335681
C      -3.628220   -2.395152    1.240637
C      -2.828631   -2.716015    0.008314
H       1.025562    2.015490    0.095919
H      -0.391416    1.969755   -0.962372
H      -0.601101    2.050996    0.790233
H       0.658611   -0.306369   -0.725953
H       0.435270   -0.238466    1.017659
H      -2.062982   -0.069405    0.663274
H      -1.813972   -0.228313   -1.072603
H       0.230537   -2.409675   -0.882787
H      -0.317213   -3.376422    1.352854
H      -1.034338   -2.031122    2.281872
H      -2.714432   -4.436303    1.622667
H      -4.636545   -2.797188    1.241917
H      -3.540604   -1.432961    1.740415
H      -3.277811   -3.115517   -0.892724
