17

O       0.044976    1.515156    0.084567
C      -0.003909    0.115036    0.035255
C       0.720685   -0.494667    1.265466
O      -0.004088   -0.248504    2.451955
C      -1.312413   -0.745453    2.368958
O      -2.051553   -0.137784    1.344547
C      -1.475552   -0.376307    0.077430
C       0.656936   -0.382793   -1.234747
O       1.135179    0.378356   -2.041074
H       0.499159    1.789881   -0.727990
H       0.860251   -1.580382    1.120445
H       1.696419   -0.019111    1.382752
H      -1.288366   -1.843027    2.214999
H      -1.808154   -0.503202    3.309872
H      -2.065270    0.182920   -0.651574
H      -1.520480   -1.452183   -0.166880
H       0.681452   -1.480798   -1.388890
