22

C      -0.040775    1.584300   -0.017495
C      -0.018115    0.055147    0.012671
C       0.761400   -0.516925    1.205610
C       0.639188   -2.043270    1.302114
C       1.614199   -2.577530    2.346744
C       1.675863   -4.093073    2.431214
O       2.953822   -2.121876    2.049885
C       3.063570   -0.890445    1.497934
N       2.161408   -0.091707    1.117670
H       0.977784    1.979472   -0.027597
H      -0.566662    1.953484   -0.903360
H      -0.549795    1.989302    0.864769
H      -1.042938   -0.336904    0.046795
H       0.435449   -0.328986   -0.909920
H       0.342205   -0.071027    2.121162
H      -0.381620   -2.341831    1.563889
H       0.873280   -2.494342    0.329100
H       1.349979   -2.163941    3.330607
H       1.936767   -4.522163    1.459019
H       2.428667   -4.406776    3.159446
H       0.705606   -4.493975    2.739757
H       4.116152   -0.627565    1.400271
