19

C      -0.025409    1.444174   -0.314615
C       0.118434   -0.027283   -0.025574
O       1.438823   -0.542298    0.143883
C       0.560037   -0.544843    1.281623
C       0.923964    0.259694    2.517533
C       1.205293   -0.814583    3.598318
C       0.234674   -1.963167    3.267073
C       0.109072   -1.925254    1.745146
O      -0.267293   -2.809143    1.020043
H       0.633165    2.043430    0.318101
H       0.223834    1.649514   -1.360770
H      -1.059752    1.764318   -0.149293
H      -0.525980   -0.692670   -0.602531
H       1.776879    0.916520    2.337823
H       0.075296    0.885710    2.820163
H       2.237867   -1.167637    3.504195
H       1.082798   -0.429683    4.612945
H       0.543514   -2.951121    3.614501
H      -0.762144   -1.767846    3.686787
