13

O      -0.055966   -0.052174   -0.000063
C      -0.001965    1.140792    0.009165
N       1.186602    1.893368    0.002473
C       1.260104    3.262022    0.012898
C       2.595013    3.591054    0.001117
C       3.259822    2.318301   -0.016520
N       2.418288    1.309596   -0.015624
C       3.182954    4.874482    0.005247
C       3.707018    5.958159    0.008435
H      -0.879069    1.813290    0.024127
H       0.376704    3.879610    0.027538
H       4.325330    2.140311   -0.029532
H       4.164762    6.916387    0.011317
