27

C      -0.061091    1.624322    0.085391
C       0.009426    0.094159   -0.012489
C       0.723797   -0.474263   -1.267224
C       0.004610    0.007662   -2.547874
C       2.184147    0.030145   -1.317192
C       0.721412   -2.053001   -1.234201
C       1.486645   -2.636102   -0.031988
C      -0.693971   -2.658566   -1.263310
O       1.405022   -2.444475   -2.437679
H       0.932540    2.080713    0.116165
H      -0.606798    2.065454   -0.753745
H      -0.582393    1.916208    1.002713
H       0.512684   -0.279407    0.886516
H      -1.014558   -0.294643    0.023892
H       0.161898    1.079371   -2.697191
H       0.391930   -0.514740   -3.424417
H      -1.076418   -0.157265   -2.499714
H       2.703575   -0.117898   -0.365129
H       2.742935   -0.490771   -2.096707
H       2.214002    1.100460   -1.538839
H       1.016389   -2.384116    0.922091
H       1.497903   -3.730366   -0.104774
H       2.523158   -2.294921   -0.013683
H      -1.250036   -2.334056   -2.144551
H      -0.620395   -3.752200   -1.300540
H      -1.272121   -2.407372   -0.370255
H       1.427149   -3.406451   -2.458910
