21

C       0.242225    1.025597   -0.442025
O      -0.421548    0.235263    0.522623
C       0.439792   -0.494665    1.336378
C      -0.258870   -1.366355    2.388716
C       0.809588   -2.466997    2.152093
C       0.389469   -3.925692    2.190816
C       1.158219   -1.788786    0.769491
C       0.509695   -2.370933   -0.387013
C      -0.025088   -2.853887   -1.350802
H       0.805618    0.408775   -1.155262
H      -0.524676    1.581543   -0.986138
H       0.933671    1.741301    0.030196
H       1.202687    0.161212    1.785549
H      -0.375305   -0.960146    3.395616
H      -1.235969   -1.679525    2.009058
H       1.660735   -2.306624    2.822183
H      -0.426967   -4.117555    1.488886
H       1.220682   -4.588219    1.926384
H       0.049325   -4.199693    3.195595
H       2.228857   -1.675301    0.573933
H      -0.496771   -3.275580   -2.203379
