17

O       0.538360    0.257582    1.529465
C      -0.052527    0.945953    0.740758
C       0.628059    1.506214   -0.525012
C       2.026634    1.119287   -0.653648
N       3.136412    0.826207   -0.775852
C      -1.521780    1.325132    0.921477
C      -2.396304    0.900176   -0.242434
C      -3.680373    1.583477   -0.523408
N      -2.538751    1.744306   -1.444741
H       0.065285    1.180782   -1.408321
H       0.551525    2.601119   -0.509859
H      -1.853260    0.852950    1.850828
H      -1.594021    2.413995    1.053196
H      -2.332577   -0.160040   -0.481321
H      -4.518130    1.020869   -0.923804
H      -3.958282    2.423632    0.107830
H      -2.110413    2.653795   -1.284297
