21

C      -0.160151    1.092309   -0.454500
C       1.208153    0.963320    0.120894
N       0.290191   -0.168501    0.119763
C      -0.239015   -0.631822    1.386474
C      -0.882241    0.274604    2.496547
C      -1.960849   -0.829894    2.711029
C      -1.552338   -1.419605    1.359628
C      -2.390196   -1.650720    0.163779
N      -1.782695   -2.780383    0.902592
H      -0.876300    1.700399    0.092232
H      -0.305226    1.085910   -1.531275
H       2.077345    0.874137   -0.525205
H       1.392207    1.470106    1.066672
H       0.547480   -1.244771    1.845573
H      -0.251124    0.531722    3.349190
H      -1.322987    1.189998    2.095260
H      -1.714251   -1.501269    3.538488
H      -2.995914   -0.499642    2.820877
H      -3.473153   -1.588585    0.238221
H      -1.976089   -1.384957   -0.804571
H      -0.963866   -3.113250    0.396520
