16

C      -0.088719    1.574811    0.030891
C       0.037073    0.047088    0.044992
C       0.851165   -0.487384   -1.150183
O       0.645027   -0.227939   -2.312658
C       1.926950   -1.351981   -0.604882
C       1.878382   -1.367185    0.740585
C       0.777217   -0.535721    1.230452
N       0.428643   -0.285807    2.436320
O       1.252981   -0.924942    3.365419
H       0.893049    2.049050    0.125339
H      -0.535445    1.895921   -0.913404
H      -0.712481    1.915935    0.859985
H      -0.965528   -0.394755   -0.019594
H       2.637039   -1.868498   -1.238071
H       2.541828   -1.901060    1.406776
H       0.871408   -0.646922    4.205022
