18

C      -0.087430    1.470424   -0.004659
C       0.035669   -0.023468   -0.008756
C       0.953689   -0.867269   -0.893730
C       0.092369   -2.089289   -0.449292
C       0.407249   -2.228307    1.073132
C      -0.295487   -0.883703    1.226420
C      -1.061585   -1.060716   -0.064625
C      -0.044387   -3.247080   -1.290203
N      -0.161324   -4.177870   -1.967446
H       0.818794    1.942303    0.392179
H      -0.251041    1.857924   -1.016199
H      -0.928748    1.795628    0.616356
H       0.804183   -0.638388   -1.951989
H       2.024991   -0.916320   -0.668839
H      -0.169459   -3.038388    1.525237
H       1.463506   -2.321115    1.346798
H      -0.650626   -0.424229    2.139490
H      -2.111763   -1.020313   -0.314292
