17

C      -0.096664    1.398611    0.010175
N      -0.047502   -0.048084    0.002077
N       0.003733   -0.747341   -1.141876
C       0.090653   -1.998756   -0.704910
C       0.211364   -3.391955   -1.244034
N       0.065149   -4.242488   -0.021285
C       0.223979   -3.405293    1.209076
C       0.097811   -2.006321    0.686402
N       0.015452   -0.759736    1.137810
H       0.912095    1.824689    0.002819
H      -0.634444    1.730224   -0.878210
H      -0.617319    1.720197    0.912292
H      -0.547530   -3.657373   -1.986366
H       1.191614   -3.560865   -1.709404
H      -0.874323   -4.619502   -0.018503
H      -0.527256   -3.678819    1.956240
H       1.208954   -3.579204    1.662473
