18

O      -0.195993    0.054479   -0.492110
C      -0.100118    1.212489   -0.178721
C      -1.057925    2.396479    0.092946
C       0.230405    3.226245    0.361988
N       0.994710    2.004868    0.079566
C       2.408777    1.729776    0.038698
C       3.064311    1.887923    1.391902
C       4.429114    2.406696    1.530852
O       3.300207    3.235088    1.815184
H      -1.645603    2.704888   -0.773323
H      -1.717116    2.253896    0.950917
H       0.421900    4.038840   -0.347185
H       0.351133    3.601000    1.382183
H       2.514929    0.698454   -0.315535
H       2.907930    2.393968   -0.679804
H       2.672371    1.237807    2.175072
H       5.029987    2.119663    2.391964
H       4.994275    2.677446    0.639748
