25

C      -0.528416    1.250173   -0.128908
C       0.233917   -0.064242   -0.136549
O       0.223387   -0.598164    1.173633
C       0.874770   -1.833994    1.289365
C       2.426985   -1.887061    1.274040
C       2.347072   -2.900819    2.447728
C       0.873672   -2.451870    2.720177
C       0.793919   -1.382171    3.813366
C      -0.145757   -3.559929    2.966627
H      -0.059915    1.960907    0.557884
H      -0.540906    1.691136   -1.130229
H      -1.561115    1.092443    0.195111
H      -0.230954   -0.778020   -0.838124
H       1.269519    0.093506   -0.478807
H       0.458059   -2.549105    0.560358
H       2.920256   -2.210712    0.354792
H       2.852129   -0.929116    1.585556
H       2.403359   -3.937612    2.103637
H       3.057046   -2.769332    3.268091
H       1.531001   -0.587840    3.665767
H      -0.193552   -0.912097    3.827872
H       0.975289   -1.834593    4.794895
H       0.029636   -4.050004    3.931491
H      -1.166476   -3.160397    2.978605
H      -0.094618   -4.329065    2.188273
