14

C       0.038613    1.576579   -0.025961
C       0.058480    0.081157   -0.017995
C       0.000828   -0.798444   -1.083854
O      -0.093556   -0.615121   -2.418568
N       0.046038   -2.056332   -0.601336
N       0.133211   -2.079357    0.767269
C       0.140530   -0.799205    1.090275
O       0.215314   -0.388918    2.375313
H       1.030512    2.014270    0.139966
H      -0.334426    1.970697   -0.979581
H      -0.619896    1.965332    0.757120
H      -0.079297    0.330549   -2.599025
H       0.017906   -2.913855   -1.122667
H       0.242010   -1.184480    2.921975
