18

C      -0.070659    1.565049    0.077734
C       0.094436    0.070222   -0.002415
N      -0.766482   -0.825554    0.832384
C       0.695244   -0.788524    1.059139
C       1.444047   -1.935268    0.396588
C       1.174115   -1.708230   -1.090868
C       0.453512   -0.591161   -1.292700
C       1.634926   -2.609294   -2.078656
C       2.055838   -3.400526   -2.884901
H       0.803908    2.081421   -0.332091
H      -0.948735    1.896268   -0.488618
H      -0.198567    1.891343    1.115086
H      -1.211409   -0.256301    1.552417
H       1.067744   -0.363919    1.985784
H       2.519003   -1.903014    0.611096
H       1.073901   -2.912817    0.723405
H       0.142145   -0.220787   -2.261833
H       2.416280   -4.090335   -3.606890
