23

C       0.112909    1.506369    0.012794
C      -0.121282    0.008299   -0.095060
O       0.723632   -0.501905   -1.108153
C       0.722517   -1.917334   -1.253934
C      -0.531529   -2.417224   -1.977053
C       1.995861   -2.283165   -2.017508
C       3.276774   -1.844433   -1.281249
C       4.493433   -2.191532   -2.004094
C       5.482049   -2.489540   -2.619975
H       1.155609    1.716103    0.267936
H      -0.111788    1.998320   -0.937822
H      -0.528848    1.937543    0.787007
H       0.099174   -0.487424    0.865467
H      -1.179434   -0.191628   -0.324626
H       0.764834   -2.377523   -0.250338
H      -0.499630   -3.505331   -2.091915
H      -1.442253   -2.169427   -1.424863
H      -0.599588   -1.965224   -2.971682
H       2.017113   -3.365744   -2.180555
H       1.966131   -1.809948   -3.005288
H       3.231891   -0.762751   -1.117138
H       3.301049   -2.306023   -0.284623
H       6.362900   -2.745032   -3.154385
