16

C      -0.316725    1.487950   -0.039427
N       0.157801    0.100881    0.098803
C       0.732653   -0.462932   -1.096828
C       0.557331   -1.993668   -1.305307
O      -0.172078   -1.759225   -2.551691
C      -0.138817   -0.407122   -2.382025
O      -0.633929    0.432449   -3.059534
C       2.178928   -0.040973   -1.370387
O       2.811977    0.634134   -0.603033
H       0.455347    2.190882   -0.381816
H      -1.151135    1.524946   -0.741873
H      -0.677084    1.818413    0.937755
H       0.883551    0.092233    0.811491
H       1.452829   -2.589995   -1.492117
H      -0.083223   -2.449500   -0.550258
H       2.623759   -0.431797   -2.311941
