17

C       0.226922    1.578967   -0.049695
C       0.063010    0.068189    0.011120
O       0.741070   -0.506968   -1.109786
C       1.239409   -1.791539   -0.778317
C       1.424680   -1.782198    0.733887
O       2.116171   -0.598385    1.184296
C       0.689830   -0.602367    1.220504
C       1.626955   -3.001502    1.456440
C       1.802696   -4.049012    2.018952
H       1.282658    1.841458    0.052457
H      -0.138291    1.957138   -1.007901
H      -0.341837    2.060736    0.751648
H      -1.007170   -0.201890   -0.008291
H       0.534255   -2.593589   -1.046793
H       2.175688   -1.946548   -1.322905
H       0.225780   -0.554025    2.201751
H       1.959716   -4.967939    2.528038
