19

C       0.216749    1.636223    0.101879
O       1.455144    1.475704   -0.622069
C       1.221833    0.061932   -0.796568
C       2.397905   -0.847249   -0.462427
O       3.149192   -0.587922    0.705079
C       2.487926   -0.056354    1.846992
C       1.163234   -0.700622    2.199221
C       0.063957   -0.613824    1.447863
C      -0.029060    0.100435    0.128450
H       0.365005    2.116854    1.074457
H      -0.521599    2.206610   -0.475822
H       0.942687   -0.162264   -1.837767
H       1.991617   -1.873852   -0.449652
H       3.124922   -0.800454   -1.281301
H       3.197326   -0.198935    2.666841
H       2.355593    1.025532    1.715710
H       1.119059   -1.259622    3.130116
H      -0.842728   -1.106201    1.791554
H      -0.945221   -0.194306   -0.386127
