18

O       0.124417    1.424048    0.187040
C       0.008420    0.036313    0.026080
C      -1.382885   -0.637225   -0.147565
C      -1.959532    0.047805   -1.389072
C      -2.724617   -1.023850   -2.186377
C      -1.316931   -1.586907   -2.370529
C      -0.665339   -1.785839   -0.981877
C       0.322762   -0.633355   -1.309120
N      -0.733542   -0.165735   -2.316553
H      -0.149046    1.843774   -0.635988
H       0.572993   -0.431218    0.838651
H      -2.042031   -0.833209    0.697070
H      -2.335682    1.066604   -1.286887
H      -3.475470   -1.621573   -1.663653
H      -3.126413   -0.630434   -3.122970
H      -1.024249   -2.235547   -3.196854
H      -0.419407   -2.735444   -0.510531
H       1.320377   -0.729349   -1.735283
