15

C      -0.272457    1.547043   -0.119477
C       0.067085    0.073289   -0.069758
O       1.090542   -0.236413   -1.028642
C       1.892257   -1.218640   -0.549456
O       2.729670   -1.785529   -1.171837
O       1.596534   -1.473647    0.757349
C       0.680561   -0.477661    1.248009
C       1.381053    0.501182    2.071701
C       1.950536    1.302782    2.761203
H       0.606247    2.154968    0.104199
H      -0.644629    1.807572   -1.113178
H      -1.052559    1.777458    0.612279
H      -0.813197   -0.532243   -0.318507
H      -0.075458   -0.994334    1.845195
H       2.460949    2.006319    3.372774
