18

C      -0.116932    1.468937   -0.000430
C       1.247824    0.832797   -0.002268
C       0.008875   -0.032745    0.006806
C      -0.323821   -0.871248    1.221970
N      -1.750949   -1.224117    1.373240
C      -0.821557   -2.197146    0.759912
C      -0.826282   -2.179114   -0.759707
O      -1.708235   -1.221537   -1.343729
C      -0.326909   -0.865835   -1.206244
H      -0.463444    1.945106    0.910138
H      -0.466933    1.942337   -0.911224
H       1.834469    0.870688   -0.914649
H       1.839608    0.875898    0.906457
H       0.283532   -0.758975    2.115917
H      -1.915865   -1.500998    2.339269
H      -0.589262   -3.122860    1.274592
H      -0.684847   -3.102401   -1.314933
H       0.203946   -0.700060   -2.142245
