21

C       3.061546   -1.283494    0.685438
O       1.741795   -1.119698    0.203080
C       1.620194   -1.409571   -1.150827
C       1.466072   -2.848547   -1.604735
C       0.294417   -1.868215   -1.664130
C      -0.858975   -2.052438   -0.700692
O      -1.707415   -3.148879   -1.030230
O      -0.016484   -1.329567   -2.915512
C      -0.686788   -2.209672   -3.807291
H       3.414960   -2.316466    0.556856
H       3.764214   -0.610336    0.172367
H       3.046840   -1.037209    1.749392
H       2.170923   -0.744366   -1.816647
H       1.933049   -3.144266   -2.537087
H       1.448733   -3.609949   -0.830625
H      -0.464605   -2.139228    0.319178
H      -1.495550   -1.163537   -0.742671
H      -1.162116   -3.942823   -1.031792
H      -0.097617   -3.120770   -3.988683
H      -1.670988   -2.502747   -3.429888
H      -0.796676   -1.667860   -4.749786
