14

N      -0.957176    0.016710   -1.455158
C      -0.430142    0.496177   -0.545955
C       0.237221    1.102743    0.602464
C       1.555198    1.791126    0.285690
N       2.165640    2.345527    1.336553
C       3.323512    2.958508    1.099371
C       3.874539    3.020922   -0.179548
N       3.269821    2.469647   -1.230590
C       2.109042    1.854882   -0.993831
H      -0.440592    1.829396    1.065070
H       0.413138    0.330944    1.360617
H       3.826048    3.411943    1.949705
H       4.820566    3.525064   -0.357364
H       1.607068    1.401558   -1.843455
