21

C      -0.213923    1.575461    0.040554
C       0.093907    0.097417    0.015766
C       0.627942   -0.508716   -1.278145
C       1.352446   -1.791589   -0.819287
O       1.680469   -1.614055    0.558592
C       0.814933   -0.649334    1.118690
C       1.366547   -0.056011    2.382414
C      -0.673691   -0.870186    0.904073
O      -1.589505   -0.285009    1.788180
H       0.684341    2.165963   -0.173219
H      -0.965206    1.828503   -0.716504
H      -0.611676    1.883214    1.008946
H      -0.153235   -0.723325   -2.014817
H       1.330027    0.197746   -1.735305
H       0.707826   -2.672691   -0.942585
H       2.281658   -1.982251   -1.364732
H       2.286760    0.501957    2.183086
H       0.640301    0.617993    2.841101
H       1.605554   -0.848364    3.100237
H      -1.001056   -1.818954    0.475506
H      -1.580783   -0.796205    2.604370
