25

C       0.477754    1.277261   -0.068019
C       0.222240   -0.234078    0.006352
C      -1.249717   -0.660527    0.121180
C      -1.961375    0.034263    1.280534
C      -2.054845   -0.701150   -1.221768
C      -1.599385   -0.014124   -2.493859
O      -1.909337   -2.136267   -1.303108
C      -1.454990   -2.210856    0.065160
C      -0.315331   -3.193437    0.246274
H       1.545463    1.474683   -0.206293
H      -0.053331    1.742088   -0.903797
H       0.167974    1.788168    0.848173
H       0.671445   -0.715389   -0.868859
H       0.760422   -0.636435    0.874777
H      -2.041427    1.114096    1.119846
H      -2.976795   -0.355052    1.405995
H      -1.425573   -0.119593    2.224869
H      -3.110088   -0.441340   -1.036015
H      -0.539778   -0.186285   -2.698624
H      -2.172482   -0.413728   -3.337211
H      -1.782046    1.064229   -2.445884
H      -2.288840   -2.508295    0.722000
H       0.543684   -2.945770   -0.381596
H       0.008565   -3.223631    1.292301
H      -0.655940   -4.197133   -0.028315
