23

C       0.059975    1.596275   -0.268732
C       0.053660    0.068525   -0.126968
C       0.894859   -0.369403    1.079837
C      -1.393081   -0.460563   -0.054850
C      -1.509435   -1.978829   -0.115356
C      -1.492355   -2.929395    1.123155
C      -2.913651   -2.467568    1.525986
C      -2.868341   -2.728682    0.001559
O      -2.112149   -3.973785    0.275492
H       1.080862    1.981295   -0.360767
H      -0.501808    1.918735   -1.151784
H      -0.395750    2.073343    0.607426
H       0.515304   -0.354886   -1.030781
H       0.456668   -0.001789    2.016045
H       0.970730   -1.458045    1.150278
H       1.912664    0.028946    1.013542
H      -1.873177   -0.058363    0.845579
H      -1.952964   -0.047892   -0.905447
H      -0.909679   -2.394551   -0.931486
H      -0.660017   -3.234585    1.758493
H      -3.483936   -3.201615    2.096055
H      -3.060211   -1.447675    1.885674
H      -3.688114   -2.787644   -0.716224
