14

O      -0.131218    1.507986   -0.043260
C       1.306223    1.257243    0.014535
C       1.200998    0.085068    1.016460
C      -0.052374    0.074133    0.004796
C       1.243684   -0.046664   -0.874189
O       1.873248   -0.184658   -2.126575
C       3.154271   -0.506696   -1.674455
N       3.359862   -0.816785   -0.452834
C       1.987943   -0.894910    0.108907
H       1.989397    2.102477   -0.012969
H       1.114240    0.159513    2.098253
H      -0.963699   -0.520362    0.028749
H       3.908012   -0.459031   -2.452105
H       1.706533   -1.946527    0.229108
