19

C       0.360879    1.632967   -0.488615
C       0.219485    0.204284   -0.250722
C       0.109494   -0.978688   -0.049332
C      -0.018860   -2.405401    0.182677
O       0.014079   -2.792464    1.589170
C      -1.201400   -3.561298    1.460111
C      -2.456255   -2.776449    1.901482
C      -2.623080   -2.250049    0.439055
C      -1.398461   -3.091242   -0.006925
H       1.381150    1.888368   -0.794959
H      -0.318848    1.972194   -1.278056
H       0.130567    2.207141    0.415466
H       0.774605   -2.939364   -0.359153
H      -1.071601   -4.595591    1.789667
H      -3.279133   -3.417788    2.229529
H      -2.256993   -2.028517    2.671627
H      -3.555742   -2.564391   -0.034035
H      -2.508127   -1.172906    0.299845
H      -1.502982   -3.745672   -0.870939
