17

O       0.220275    1.390721   -0.293087
C       0.034042    0.053276    0.001460
C      -1.387038   -0.658566   -0.073903
C      -2.268050   -0.439729   -1.341113
C      -1.589259   -1.700189   -1.992242
C      -0.528716   -1.449236   -3.085030
N       0.484420   -0.634496   -2.353921
C       0.293351   -0.924282   -1.128272
N      -0.733155   -1.854991   -0.760530
H       0.278723    1.450109   -1.257665
H       0.486322   -0.174288    0.970202
H      -1.892908   -0.837165    0.876635
H      -3.332634   -0.570700   -1.143404
H      -2.125698    0.511139   -1.859585
H      -2.256779   -2.541457   -2.186074
H      -0.113150   -2.393284   -3.461854
H      -0.902533   -0.879620   -3.941147
