17

C      -0.098314    1.666662    0.048749
C       0.001852    0.157979    0.043135
O      -1.281728   -0.355848   -0.068971
C       1.105510   -0.629239   -0.742531
C       2.191756   -0.176450    0.250467
C       0.961544   -0.630630    1.061007
O       0.826847   -1.798453    0.146649
C       0.789984   -0.845552    2.524034
O       1.158104   -0.049426    3.351260
H       0.866034    2.162755    0.151574
H      -0.567152    1.998682   -0.882395
H      -0.741551    1.981274    0.875017
H      -1.167917   -1.318364   -0.092160
H       1.180105   -0.840035   -1.809940
H       3.036448   -0.860531    0.323776
H       2.490423    0.869457    0.283797
H       0.266156   -1.788553    2.794146
