20

C      -0.139828    1.558671   -0.010148
C      -0.005325    0.034677   -0.032946
C       0.747918   -0.490796   -1.256203
C       0.951033   -2.007221   -1.202981
O      -0.014295   -0.101946   -2.399148
C       0.705115   -0.102028   -3.615402
C      -0.114918    0.478512   -4.672043
C      -0.769472    0.950290   -5.561392
H       0.843092    2.042227    0.029889
H      -0.651654    1.910981   -0.908731
H      -0.708690    1.890491    0.863568
H       0.516344   -0.314304    0.866233
H      -0.999052   -0.430135   -0.021057
H       1.734376    0.003906   -1.305729
H       1.495770   -2.377980   -2.076313
H       1.527195   -2.284481   -0.314463
H      -0.016635   -2.517197   -1.162081
H       1.637350    0.479664   -3.511069
H       1.002221   -1.121429   -3.909648
H      -1.353093    1.369766   -6.343094
