16

C      -0.023047    1.403039   -0.155264
N      -0.022134   -0.048720   -0.246711
C      -1.067507   -0.678830    0.091928
O      -2.192284   -0.017808    0.539401
N      -3.346693   -0.714521    0.915891
C      -3.278180   -1.992224    0.812219
N      -2.220010   -2.777359    0.379139
C      -1.149027   -2.147139    0.029684
C       0.047847   -2.898415   -0.451748
H       0.949615    1.781312   -0.475510
H      -0.801515    1.847526   -0.789117
H      -0.215945    1.744457    0.870151
H      -4.181438   -2.515864    1.108488
H      -0.160233   -3.968351   -0.442838
H       0.317466   -2.569269   -1.460134
H       0.912803   -2.671322    0.179223
