19

C       1.244678    1.402119    0.497097
C       0.898877   -0.088830    0.513907
C       1.082057   -0.741518   -0.856306
C       0.752071   -2.209866   -0.883099
N       0.360213   -2.872512    0.107867
O       0.967011   -2.667685   -2.199509
C       0.757318   -3.967478   -2.575164
N       1.096483   -4.099775   -3.884550
O       0.357165   -4.864448   -1.870580
H       2.286570    1.568565    0.200256
H       0.610070    1.952869   -0.206706
H       1.106901    1.848739    1.486355
H       1.520119   -0.614947    1.245727
H      -0.134429   -0.235754    0.844108
H       0.460397   -0.241649   -1.611710
H       2.115121   -0.620938   -1.209984
H       0.193886   -3.848430   -0.134871
H       1.285535   -3.286109   -4.442576
H       0.870564   -4.969107   -4.334824
