19

C      -0.080891    1.621622   -0.163130
C       0.009479    0.108616   -0.041005
C       0.681623   -0.672269   -1.183371
N       2.056774   -0.144037   -1.283256
C       1.751567   -1.190142   -0.278898
C       1.114165   -0.501598    0.917092
O       1.954344    0.392397    1.622649
C       1.737303    0.546577    2.942412
N       2.402173    1.391835    3.602998
H       0.886229    2.040216   -0.445896
H      -0.820439    1.901354   -0.921130
H      -0.386494    2.074163    0.785685
H      -0.963789   -0.324138    0.210727
H       0.202326   -1.162886   -2.020985
H       2.512825   -0.614681   -2.063930
H       2.280137   -2.135270   -0.283626
H       0.673735   -1.229111    1.608713
H       0.963963   -0.127430    3.340037
H       2.123794    1.360327    4.581569
