17

C       0.130796    1.546382    0.003789
O       0.218209    0.137519   -0.151593
C       0.556249   -0.565030    1.011194
C      -0.494305   -0.640245    2.173921
C      -0.233305   -2.167801    2.257011
C       0.421662   -2.105146    0.852007
C       1.890674   -0.172488    1.507130
N       2.932220    0.144915    1.896031
H       1.094490    1.981112    0.299145
H      -0.161670    1.947157   -0.968211
H      -0.627465    1.823633    0.749001
H      -0.316864   -0.034239    3.063189
H      -1.481958   -0.414234    1.763777
H       0.490352   -2.416311    3.036373
H      -1.104757   -2.813686    2.369468
H      -0.293006   -2.299928    0.049457
H       1.336326   -2.671063    0.673795
