16

N       0.109216    1.578407   -0.208910
C      -0.039980    0.142542    0.053086
C       0.523595   -0.230571    1.464254
C      -0.531240   -1.137204    2.044209
C      -1.643100   -1.154841    1.314200
C      -1.550227   -0.263515    0.102613
C       0.648130   -0.671299   -0.975276
N       1.200733   -1.261828   -1.802580
H       1.095974    1.823315   -0.237571
H      -0.261874    1.801736   -1.129188
H       1.511172   -0.698667    1.403385
H       0.633282    0.689491    2.052082
H      -0.378661   -1.678038    2.970885
H      -2.541873   -1.712364    1.550591
H      -2.153504    0.645231    0.222295
H      -1.876335   -0.752483   -0.820801
