19

C       0.470594    0.987656    1.047963
O       0.088021   -0.269786    0.527790
C       0.074755   -0.318061   -0.880912
C       1.498339   -0.390289   -1.440351
O       1.791373   -0.112659   -2.574675
C      -0.701246   -1.564865   -1.309758
C      -0.964783   -1.765004   -2.816840
C      -0.223396   -3.102679   -2.621466
O       0.096805   -2.771487   -1.249531
H       1.487300    1.276153    0.741596
H      -0.222038    1.781439    0.728891
H       0.443731    0.906738    2.136635
H      -0.428821    0.565143   -1.308810
H       2.246728   -0.749732   -0.701416
H      -1.585593   -1.643161   -0.664610
H      -2.012744   -1.822296   -3.112686
H      -0.435757   -1.054047   -3.452197
H      -0.851727   -3.999596   -2.682087
H       0.678519   -3.251716   -3.224113
