17

C       0.166161    1.333605   -0.194582
O      -0.168655   -0.015357    0.115416
C       0.542703   -0.518520    1.172567
C       1.937345   -1.020051    1.060272
C       0.823753   -2.018543    1.430781
C       0.496414   -1.809940    2.873765
O       0.422920   -2.509049    3.846128
C       0.162661   -0.305577    2.642611
O       0.881672    0.682135    3.340601
H       1.223458    1.425575   -0.476064
H      -0.461392    1.626029   -1.038373
H      -0.031273    1.999440    0.655146
H       2.290971   -1.154700    0.043114
H       2.698457   -0.748202    1.783281
H       0.626239   -2.884696    0.812409
H      -0.928099   -0.170994    2.726891
H       0.796755    0.492673    4.282047
