16

O       0.216625    1.178986    0.565106
C       0.122374   -0.182569    0.178416
C      -1.264255   -0.377605   -0.417781
C      -1.712837   -1.859092   -0.497886
C      -2.549215   -1.560871    0.784766
N      -2.381703   -0.116115    0.520693
C      -3.935347   -2.032141    0.819105
N      -5.021772   -2.425440    0.845288
H       1.073693    1.324790    0.975794
H       0.883712   -0.450283   -0.571941
H       0.259408   -0.852862    1.043660
H      -1.342490    0.208234   -1.339457
H      -2.337885   -2.076552   -1.363135
H      -0.940365   -2.622888   -0.398956
H      -2.048515   -1.928609    1.690576
H      -2.147099    0.465012    1.318800
