17

C      -0.431379    1.058826   -0.514146
N       0.620400    1.523463    0.407872
C       0.393359    0.075193    0.231831
C      -0.142962   -0.626135    1.421838
N      -1.244767   -0.084171    2.280799
C      -0.902818   -1.382796    2.947571
C      -0.665886   -2.092026    1.583519
O       0.629293   -2.648038    1.948691
C       0.619562   -1.344009    2.599829
H      -1.443944    1.256155   -0.177225
H      -0.269785    1.151959   -1.584627
H       1.442804    1.809721   -0.116705
H       1.130265   -0.497205   -0.327718
H      -0.894678    0.706359    2.826433
H      -1.402524   -1.759063    3.839783
H      -1.341799   -2.675056    0.959805
H       1.486784   -1.037057    3.186399
