17

O      -0.103204    1.430670   -0.118919
C      -0.048698    0.055179   -0.039771
C      -0.410386   -0.876748   -1.179591
C      -1.154094   -0.952834    0.127172
O      -0.409974   -1.714196    1.081143
C       0.646207   -0.710484    1.090541
C       2.051496   -1.277598    0.893585
C       2.503471   -2.087094    2.018266
C       2.861628   -2.743225    2.958792
H       0.498050    1.722029   -0.812876
H      -0.956274   -0.375753   -1.974086
H       0.228652   -1.696695   -1.494797
H      -2.225970   -0.867488    0.254037
H       0.595246   -0.137519    2.024157
H       2.080128   -1.869268   -0.028262
H       2.735700   -0.429610    0.749949
H       3.178218   -3.330266    3.784795
