15

O       0.077855    0.023527    0.060453
C       0.013658    1.225854    0.021818
C      -1.305959    2.065952    0.051430
C      -0.828469    3.432080   -0.432872
C      -0.860639    4.836130    0.230474
O      -0.205117    4.775653    1.496627
C       0.624420    4.858914    0.315375
C       0.658347    3.413873   -0.127360
C       1.164446    2.195352    0.054368
H      -2.092906    1.589092   -0.534932
H      -1.628845    2.108211    1.098309
H      -0.990972    3.567292   -1.509839
H      -1.559338    5.649180    0.072203
H       1.345417    5.663882    0.264938
H       2.170985    1.889542    0.306217
