20

C      -0.294469    1.498472    0.045525
C      -0.048657    0.003447   -0.021696
C       0.504331   -0.594619   -1.331204
O       1.517294    0.242705   -1.926675
C       2.582223   -0.389423   -1.154998
C       3.150378    0.514255   -0.058798
C       2.210223    0.275049    1.165300
N       1.111600   -0.606476    0.742257
C       1.559578   -1.327576   -0.480512
H       0.536555    2.063500   -0.383036
H      -1.196062    1.745623   -0.525271
H      -0.458509    1.826309    1.077314
H      -0.957220   -0.530277    0.287166
H      -0.171675   -1.023034   -2.073981
H       3.335238   -0.816982   -1.824337
H       4.185305    0.241344    0.171826
H       3.151063    1.553110   -0.400231
H       2.765060   -0.223803    1.968624
H       1.812432    1.201232    1.586485
H       1.731776   -2.400567   -0.396814
