16

N      -0.361426   -0.920302   -0.688982
C      -0.177796    0.157865   -0.321949
C       0.027747    1.562136    0.094464
O      -0.633210    1.735046    1.310701
C      -1.034596    3.064873    1.602205
C       0.019294    4.135394    1.541649
C       1.188168    4.153578    0.903317
C       1.833995    3.109376    0.035611
O       1.403732    1.766696    0.198671
H      -0.406124    2.219739   -0.681593
H      -1.867586    3.355472    0.936517
H      -1.450557    3.013932    2.613239
H      -0.277216    5.039864    2.070501
H       1.771545    5.071724    0.951655
H       1.716910    3.410878   -1.021199
H       2.910418    3.081651    0.231444
