21

O      -0.086301    1.378946    0.152188
C      -0.003141   -0.006062   -0.018791
C      -0.479441   -0.627934   -1.306442
C      -1.261795   -0.831230   -0.016184
C      -0.948010   -2.002287    0.941971
C       0.085739   -2.974550    0.323323
C       1.400508   -2.124713    0.314534
C       0.949624   -0.779528    0.930100
C      -0.070002   -1.269042    1.991198
H       0.643080    1.781871   -0.331440
H      -0.933608    0.067681   -2.005538
H       0.050356   -1.446029   -1.779742
H      -2.230241   -0.349396    0.059076
H      -1.843596   -2.498319    1.319861
H       0.194625   -3.860080    0.956090
H      -0.207988   -3.323379   -0.669800
H       2.167415   -2.582756    0.945890
H       1.832661   -2.009956   -0.682952
H       1.768480   -0.152887    1.287839
H      -0.592482   -0.443758    2.482393
H       0.360845   -1.931493    2.750911
