20

C      -0.292896    1.698285   -0.706682
C      -0.141180    0.272667   -0.212684
C      -1.378142   -0.200867    0.507014
C      -1.338897   -0.995070    1.739170
O      -1.648992    0.401817    1.774673
C       0.611964   -0.790630   -0.922579
C       1.841504   -0.266077   -1.661661
C       2.275774    0.346959   -0.305738
N       1.094299   -0.246239    0.417398
H       0.526310    2.033211   -1.343862
H      -1.217678    1.788856   -1.286622
H      -0.371538    2.377758    0.147802
H      -2.258223   -0.283783   -0.134921
H      -2.169758   -1.660807    1.970996
H      -0.370193   -1.262281    2.150501
H       0.220534   -1.800639   -1.011662
H       2.507003   -1.065463   -1.991720
H       1.662059    0.407174   -2.505003
H       3.192039   -0.090121    0.095158
H       2.348789    1.435630   -0.235018
