13

O      -0.091054   -0.035492   -0.001088
C      -0.049647    1.161697    0.008113
N       1.147380    1.893379    0.000705
C       2.439758    1.373324   -0.018072
N       3.338481    2.306930   -0.020492
C       2.632636    3.509117   -0.002672
C       3.265136    4.834006    0.001119
O       4.452911    5.041087   -0.010251
C       1.284031    3.267928    0.010489
H      -0.935093    1.820854    0.023635
H       2.602873    0.306933   -0.028686
H       2.527816    5.669308    0.016478
H       0.429774    3.925466    0.025507
