16

O      -0.020703    1.190535    0.244511
N       0.017309   -0.209750    0.312874
C      -1.103330   -0.721183    0.018792
C      -2.514373   -0.319608   -0.343282
O      -2.907219   -1.720499   -0.291613
C      -1.572622   -2.118472    0.052381
C      -0.885480   -3.380492   -0.390162
C      -1.156602   -3.133624    1.082130
O      -0.140697   -2.835055    1.980539
H       0.886823    1.436087    0.455771
H      -3.036206    0.293341    0.399643
H      -2.646400    0.111489   -1.341618
H      -1.504542   -4.120757   -0.886845
H       0.130253   -3.287339   -0.762111
H      -1.944233   -3.726869    1.537120
H       0.257217   -1.988648    1.729664
