18

O       0.178538    0.423901    0.858029
C      -0.271607    0.206293   -0.462326
C      -1.606016   -0.522161   -0.499706
C      -1.791379   -1.703361   -1.412746
C      -1.597181   -1.924205    0.065000
N      -0.437714   -2.511907    0.782622
C      -1.353762   -3.180065    1.767814
C      -2.552000   -2.510254    1.060188
O      -3.734591   -2.470393    1.233012
H       0.298367   -0.462816    1.229993
H      -0.366719    1.189543   -0.934614
H       0.467316   -0.363110   -1.049674
H      -2.484469    0.067930   -0.254804
H      -2.776918   -1.918754   -1.812174
H      -0.964292   -1.970352   -2.064574
H       0.062805   -3.192295    0.219419
H      -1.371081   -4.273969    1.717510
H      -1.184895   -2.870102    2.802931
