21

C      -0.172086    1.559256   -0.014943
C       0.071456    0.074217   -0.049307
C       0.175191   -0.603278   -1.196321
C       0.414210   -2.087129   -1.389217
C      -0.322409   -3.114791   -0.558099
C      -1.321315   -2.992928    0.319111
C      -2.005291   -1.721652    0.766568
O      -1.256574   -0.958360    1.715887
C       0.065248   -0.623247    1.293158
H       0.636822    2.080815    0.513048
H      -0.254759    1.985599   -1.018333
H      -1.095914    1.782481    0.533216
H       0.121085   -0.034631   -2.123602
H       0.219178   -2.328500   -2.443989
H       1.490904   -2.293953   -1.273949
H       0.049598   -4.123998   -0.737186
H      -1.664416   -3.905129    0.802001
H      -2.263763   -1.101439   -0.100140
H      -2.935032   -1.963879    1.287969
H       0.698184   -1.518852    1.273477
H       0.446458    0.039009    2.076860
