16

C       0.043415    1.546440   -0.191537
C       0.016618    0.023390   -0.061049
C       0.767763   -0.687785   -1.208910
N       2.184223   -0.353902   -1.263106
C       2.731909    0.297939   -2.331317
O       2.108057    0.708601   -3.283825
C       0.597263   -2.147049   -1.108888
N       0.467341   -3.289342   -0.993481
H       1.066992    1.930531   -0.167824
H      -0.413902    1.873121   -1.130725
H      -0.508177    2.007703    0.632132
H       0.453649   -0.290849    0.894335
H      -1.015598   -0.342920   -0.063871
H       0.360675   -0.356298   -2.170653
H       2.792960   -0.706867   -0.540749
H       3.825587    0.420641   -2.219068
