11

O      -0.041763    1.312300    0.009888
C       0.033420   -0.024979    0.002139
N       1.197479   -0.597114   -0.007304
N       1.164835   -1.957213   -0.014560
C       0.052968   -2.768756   -0.012969
O       0.082949   -3.981760   -0.019725
C      -1.166454   -1.921803   -0.001677
F      -2.297145   -2.579810    0.000885
N      -1.188547   -0.646003    0.005407
H       0.862492    1.653369    0.006819
H       2.070297   -2.407018   -0.021929
