16

N      -0.012694    1.338619    0.009813
C       1.126712    2.114338    0.002884
C       2.359032    1.526967   -0.012251
C       2.467072    0.118196   -0.020848
C       3.519767   -0.780847   -0.035845
C       2.967674   -2.095592   -0.037642
C       1.581775   -2.048720   -0.023855
C       1.216760   -0.675929   -0.012941
C       0.015945   -0.020504    0.002252
H      -0.906731    1.801099    0.020996
H       0.964204    3.182867    0.010201
H       3.240420    2.158917   -0.017419
H       4.573016   -0.536680   -0.044729
H       3.556200   -3.005411   -0.048278
H       0.903102   -2.889610   -0.021767
H      -0.948479   -0.514830    0.008978
