22

C      -0.204183    1.502269    0.018679
C       0.071248    0.031757   -0.020587
C       0.229306   -0.840490   -1.200848
C       1.407116   -1.796213   -1.055591
C       1.913448   -1.536190    0.386510
C       0.714217   -0.873089    1.085261
C       0.986156   -0.310895    2.465251
C      -0.535678   -1.771321    0.892414
N      -0.975973   -1.012454   -0.324822
H       0.724413    2.082225   -0.040138
H      -0.838160    1.790513   -0.825184
H      -0.721954    1.792215    0.939812
H      -0.049599   -0.482148   -2.186877
H       1.101692   -2.837377   -1.207111
H       2.171470   -1.580428   -1.808037
H       2.231156   -2.451645    0.898300
H       2.767806   -0.848116    0.378424
H       1.792651    0.431368    2.442403
H       0.097833    0.171215    2.886906
H       1.289656   -1.105309    3.156827
H      -0.374782   -2.846021    0.741960
H      -1.290465   -1.634859    1.671894
