19

C      -0.047660    1.546184   -0.063356
C       0.047004    0.035947    0.046711
O       0.811999   -0.466816   -1.069030
C       1.289125   -1.734784   -0.715085
C       2.524434   -1.855661    0.198379
C       3.084693   -0.600748    0.773867
C       2.148989    0.097976    1.419054
C       0.783525   -0.558891    1.279309
C       1.110457   -1.977165    0.744976
H       0.946412    1.999393   -0.067676
H      -0.555348    1.825232   -0.990872
H      -0.621266    1.953758    0.775422
H      -0.966506   -0.397990    0.005506
H       1.122728   -2.499226   -1.467833
H       3.150389   -2.730762    0.058711
H       4.118887   -0.305136    0.642892
H       2.290766    1.069161    1.877511
H       0.164718   -0.537399    2.180303
H       0.694363   -2.877499    1.178704
