16

C       0.017282    1.434571   -0.086232
C       0.009968   -0.058902   -0.043859
N       0.606771   -0.941536   -1.107990
C       0.067349   -1.913835   -0.108555
C       0.142259   -3.343881   -0.234977
N       0.170555   -4.498021   -0.309765
C       0.504076   -1.004375    1.098873
N      -0.825249   -0.978710    1.775069
C      -1.170083   -1.030565    0.324992
H       1.039158    1.809828   -0.194752
H      -0.576071    1.808501   -0.927233
H      -0.409175    1.831179    0.839683
H       0.018895   -0.938468   -1.946612
H       1.463314   -1.008488    1.615122
H      -1.020453   -1.872900    2.231167
H      -2.190033   -1.066482   -0.062562
