18

C      -0.216377    1.428729    0.021080
N      -0.064065   -0.015426   -0.013616
C      -0.067194   -0.732084    1.261159
C      -1.461271   -1.105305    1.779557
O      -2.232861   -1.828706    0.851388
C      -0.060461   -0.742737   -1.162558
N      -0.164881   -2.027840   -1.174164
C       0.110258    0.002183   -2.401153
N       0.244382    0.522514   -3.425258
H      -0.109756    1.846905   -0.980168
H      -1.200468    1.717227    0.409874
H       0.552927    1.870006    0.664372
H       0.526624   -1.640296    1.124257
H       0.439167   -0.100636    2.000204
H      -1.315018   -1.663566    2.720837
H      -2.025724   -0.198666    2.037233
H      -1.628551   -2.303429    0.259938
H      -0.065315   -2.402029   -2.112697
