19

O      -0.002155    1.420998    0.032823
C       0.034385    0.010361   -0.093871
C      -1.345368   -0.580241    0.039322
O      -2.179197   -0.011087   -0.972882
C      -3.453581   -0.623810   -0.725091
C      -3.109518   -1.508037    0.462343
C      -1.676828   -2.095924    0.202368
C      -1.389596   -1.985501    1.718361
C      -2.144837   -0.680510    1.378731
H      -0.705127    1.718955   -0.556636
H       0.460681   -0.296362   -1.062607
H       0.693303   -0.364540    0.694208
H      -4.204735    0.141881   -0.494330
H      -3.779484   -1.183113   -1.610674
H      -3.880971   -2.136349    0.907725
H      -1.417961   -2.905310   -0.481907
H      -1.923343   -2.692982    2.357377
H      -0.345795   -1.897472    2.029019
H      -2.416386    0.139988    2.043053
