20

C      -0.072945    1.494586   -0.027052
C      -0.007106   -0.027347   -0.072971
C       0.781709   -0.612389   -1.252215
C       1.235653   -1.986955   -0.726188
N       2.337938   -2.668012   -1.382411
C       1.578421   -1.648862    0.753989
N       0.641117   -0.589526    1.137145
C       1.475665   -2.821919    1.635972
N       1.399611   -3.738724    2.335069
H       0.933091    1.930903   -0.018727
H      -0.605682    1.887266   -0.898393
H      -0.602632    1.834357    0.869069
H      -1.037156   -0.411052   -0.116812
H       0.195031   -0.684726   -2.172497
H       1.666575    0.005403   -1.462551
H       0.380227   -2.671344   -0.725877
H       2.035206   -3.071758   -2.262068
H       3.083220   -2.012304   -1.601564
H       2.628803   -1.320123    0.783806
H       1.092364    0.125484    1.691265
