23

C       0.117268    1.408377   -0.123005
O       0.030304   -0.001391   -0.030669
C       0.634310   -0.537587    1.103697
C       0.370830   -2.043428    1.087930
C       0.537199   -2.777651    2.439286
C       1.496800   -2.156949    3.475822
C       2.835864   -1.632028    2.933855
C       2.729065   -0.261876    2.256825
O       2.025507   -0.261338    1.030196
H       1.156035    1.744471   -0.207719
H      -0.435209    1.701012   -1.018533
H      -0.340940    1.893857    0.752995
H       0.227167   -0.052492    2.014342
H      -0.642390   -2.202393    0.707747
H       1.056314   -2.453352    0.339580
H      -0.443405   -2.876822    2.919084
H       0.863737   -3.801992    2.225986
H       0.992686   -1.331436    3.996261
H       1.688234   -2.913129    4.245822
H       3.542189   -1.525867    3.767352
H       3.282356   -2.348541    2.233124
H       2.267386    0.452620    2.961072
H       3.727830    0.114538    2.013668
