20

C      -0.042991    1.591477    0.065857
C       0.023922    0.086554   -0.020331
C       0.028111   -0.525481   -1.209533
C       0.047060   -2.006157   -1.530493
C      -0.915595   -2.862743   -0.704923
O      -1.830064   -3.489906   -1.203383
N      -0.663076   -2.885911    0.638006
C       0.352656   -2.102587    1.317605
C       0.073066   -0.597094    1.328588
H       0.837789    1.999851    0.578473
H      -0.106316    2.052708   -0.922686
H      -0.916419    1.914003    0.647734
H      -0.006178    0.113514   -2.089149
H      -0.247354   -2.157445   -2.569759
H       1.061943   -2.416787   -1.430428
H      -1.330402   -3.409075    1.184315
H       0.412981   -2.467182    2.346663
H       1.334022   -2.291857    0.865716
H       0.848637   -0.110159    1.937896
H      -0.872478   -0.410134    1.859199
