21

C      -0.238035    1.478093    0.069455
C      -0.305010   -0.017386    0.325013
O      -1.294312   -0.575030   -0.528595
C      -1.458173   -1.947180   -0.356988
C      -2.294458   -2.551156    0.750959
C      -3.488135   -1.637834    1.058523
C      -3.946953   -1.732729   -0.431770
C      -2.732636   -2.620224   -0.727244
O      -2.771918   -3.734137   -1.549818
H       0.519587    1.940771    0.709016
H       0.019142    1.678779   -0.974555
H      -1.203520    1.947215    0.279685
H       0.671080   -0.489053    0.124311
H      -0.554384   -0.226423    1.376621
H      -0.572548   -2.540571   -0.597112
H      -1.903264   -3.328670    1.396488
H      -4.202986   -2.090104    1.748316
H      -3.235838   -0.635834    1.414863
H      -4.877343   -2.294214   -0.538976
H      -4.015178   -0.797869   -0.994102
H      -2.488598   -3.468788   -2.431916
