16

N       0.129349   -1.152946    0.090840
C       0.061033   -0.000151    0.040016
C      -0.073797    1.441747   -0.035066
C      -1.124816    2.163871    0.850979
C      -1.313698    3.221832   -0.269321
C      -0.116035    4.206964   -0.376131
C       0.725919    3.085030   -1.023599
O       1.192731    2.133093   -0.031481
C      -0.567109    2.260570   -1.272605
H      -2.019622    1.545012    0.962480
H      -0.774568    2.491267    1.832440
H      -2.317240    3.611733   -0.428254
H      -0.326956    4.995286   -1.105927
H       0.275257    4.653966    0.541211
H       1.503972    3.323794   -1.749130
H      -0.931268    1.852306   -2.210225
