22

C      -0.502647    1.384843   -0.089380
N      -0.024242    0.019045    0.030085
C       1.332265   -0.399548   -0.316970
C       2.437748    0.581668   -0.705229
C       3.279714    1.050551    0.492572
C       2.386235    1.557638    1.628096
C       1.469588    0.444479    2.161814
O       0.409215    0.960889    2.966245
C       0.837446   -0.442571    1.103312
H       0.266300    2.169235   -0.074643
H      -1.050290    1.478172   -1.033740
H      -1.192341    1.583543    0.734076
H       1.352173   -1.337081   -0.870733
H       3.085199    0.098030   -1.443331
H       2.007358    1.455261   -1.211078
H       3.890254    0.213502    0.856937
H       3.979504    1.833567    0.179841
H       2.998312    1.935770    2.457284
H       1.774816    2.398044    1.283914
H       2.096970   -0.231445    2.769387
H       0.803435    1.477119    3.677330
H       0.519170   -1.400280    1.514771
