15

C       0.212085    1.343518   -0.705567
C       0.059038   -0.016597   -0.211784
C      -0.057903   -1.143222    0.193917
C      -0.183719   -2.498835    0.705306
N      -1.351379   -3.196022    0.159996
C      -2.456759   -2.742604   -0.455090
N      -3.245765   -3.762318   -0.718902
N      -2.596365   -4.857958   -0.245495
N      -1.462649   -4.535110    0.283678
H       1.252308    1.674080   -0.617121
H      -0.070284    1.412769   -1.761236
H      -0.411937    2.044987   -0.142236
H       0.692471   -3.103261    0.450344
H      -0.265321   -2.494894    1.798607
H      -2.633513   -1.706837   -0.687857
