19

C      -0.089376    1.557263    0.381987
C       0.049172    0.061239    0.199808
N       1.271446   -0.590333   -0.276066
C       2.456259    0.185420   -0.612764
C       0.901928   -0.756594    1.109591
C       1.633623   -0.322081    2.403383
N       1.289244   -1.649057    2.927369
C       0.595725   -2.084180    1.812690
O      -0.010381   -3.089628    1.565267
H       0.789232    2.013441    0.843747
H      -0.261081    2.050972   -0.580633
H      -0.951709    1.773881    1.021165
H      -0.848160   -0.423221   -0.184079
H       2.657658    1.043769    0.045071
H       3.327027   -0.476606   -0.579777
H       2.355110    0.556465   -1.637135
H       2.710430   -0.148540    2.306240
H       1.174548    0.512057    2.945089
H       1.325121   -2.015012    3.866219
