16

C       0.213837    1.034026    1.052028
C       0.000701   -0.134587    0.209793
C      -0.162136   -1.094979   -0.498657
C      -0.393804   -2.264350   -1.336935
C      -1.578811   -3.143451   -0.852634
O      -1.842241   -4.152367   -1.783339
C      -1.289438   -3.745098    0.508765
O      -1.331087   -4.939674    0.687045
H       1.071186    0.893964    1.719399
H       0.405614    1.927770    0.448278
H      -0.662475    1.239280    1.676613
H      -0.628019   -1.963686   -2.364219
H       0.503902   -2.892083   -1.396051
H      -2.453295   -2.480670   -0.729424
H      -1.791513   -4.984731   -1.285555
H      -1.036759   -3.036531    1.319391
