21

C       0.103242    1.575081   -0.018412
C      -0.019470    0.052964    0.011045
O      -1.434964   -0.207495    0.071193
C       0.582018   -0.564204   -1.270608
C       0.693249   -2.087946   -1.213048
C       2.035807   -2.728370   -0.951228
C       0.980121   -2.710942    0.135514
C       1.088236   -1.789181    1.294424
C       0.647594   -0.530540    1.245369
H       1.152626    1.882536   -0.044991
H      -0.402218    1.977268   -0.901457
H      -0.367008    2.007114    0.869635
H      -1.540319   -1.140697    0.283382
H      -0.046940   -0.263133   -2.114082
H       1.571387   -0.123136   -1.436797
H       0.022205   -2.635914   -1.866279
H       2.261361   -3.678748   -1.422962
H       2.888997   -2.067361   -0.834481
H       0.522425   -3.672775    0.354381
H       1.525130   -2.182147    2.210258
H       0.710992    0.110765    2.120769
