21

C      -0.021147    1.667379   -0.048036
C       0.019407    0.139335    0.002219
C      -1.373738   -0.527011    0.030818
O      -2.005231   -0.155090   -1.203772
C      -1.281832   -2.068940    0.143538
C      -0.548012   -2.746574   -1.009776
O      -0.768973   -4.144807   -0.872699
C      -2.168951   -0.030014    1.166019
C      -2.853721    0.340486    2.082535
H       0.991996    2.074884   -0.115655
H      -0.587771    2.006631   -0.918331
H      -0.493832    2.080579    0.847526
H       0.541322   -0.240942   -0.882030
H       0.578581   -0.202260    0.880104
H      -2.942457   -0.364259   -1.127742
H      -0.811362   -2.336969    1.095401
H      -2.300131   -2.473570    0.174865
H      -0.940582   -2.365266   -1.962661
H       0.527208   -2.516066   -0.974632
H      -0.320141   -4.588936   -1.597870
H      -3.451217    0.680243    2.892457
