17

O       0.143285    1.391211   -0.169848
C       0.019661    0.015702   -0.045733
C       0.200111   -0.845778   -1.321765
O      -1.015366   -1.569554   -1.049214
C      -1.366207   -0.689085    0.046320
C      -1.421126   -1.451467    1.374427
C       0.058841   -1.737985    1.718252
C       0.774518   -0.509622    1.179028
O       1.703475    0.088826    1.665073
H       0.889900    1.642833    0.396394
H       0.126963   -0.225918   -2.223821
H       1.074091   -1.504137   -1.393635
H      -2.250712   -0.084536   -0.174780
H      -1.872337   -0.811657    2.141794
H      -2.026211   -2.357183    1.289160
H       0.270507   -1.887992    2.777600
H       0.411467   -2.620484    1.170792
