18

C      -0.119712    1.482738    0.067226
C       0.012314   -0.005003   -0.012627
C      -0.071474   -0.773969   -1.098529
C       0.064586   -2.244283   -0.792832
C       0.554866   -2.262578    0.688130
C       0.223776   -0.842920    1.232971
C      -0.105736   -3.353905    1.493163
O       0.461630   -4.253543    2.056512
H       0.781343    1.938416    0.497148
H      -0.289224    1.926479   -0.917325
H      -0.953944    1.771984    0.719411
H      -0.256781   -0.407615   -2.102921
H      -0.901381   -2.759902   -0.907642
H       0.766656   -2.766970   -1.451132
H       1.633478   -2.432417    0.719791
H       1.023574   -0.461278    1.877625
H      -0.688283   -0.843559    1.850341
H      -1.219718   -3.265092    1.531273
