19

C       0.789282    1.308690    0.652883
N       0.729438   -0.085689    0.278476
C       1.057346   -0.534471   -0.949351
O       1.436123    0.177540   -1.868147
C       0.872728   -2.085006   -0.989884
O       0.479852   -2.628950    0.040372
N       1.141255   -2.776729   -2.124347
C       0.952055   -4.222233   -2.107358
C       1.608941   -2.244932   -3.399772
H       1.486888    1.465353    1.483124
H       1.133901    1.873798   -0.214367
H      -0.196747    1.679883    0.953697
H       0.434659   -0.804597    0.925756
H       0.604064   -4.525183   -1.122727
H       0.216087   -4.512840   -2.866538
H       1.897955   -4.726775   -2.337945
H       2.566828   -2.711952   -3.661381
H       0.887923   -2.497170   -4.187557
H       1.727695   -1.168659   -3.339589
