19

C      -0.092657    1.547627   -0.070635
C       0.027421    0.036860   -0.063974
C      -1.102398   -0.650063    0.683140
C       0.615533   -0.757912   -1.167664
C       1.761012   -0.026231   -1.888667
C       2.421908    0.085683   -0.476735
N       1.309801   -0.672200    0.185596
C       2.501823   -0.838688   -2.838769
N       3.090368   -1.485083   -3.595415
H       0.652959    2.055232   -0.684462
H      -1.078634    1.835412   -0.449278
H      -0.005795    1.935567    0.950354
H      -2.065732   -0.447377    0.203610
H      -0.944951   -1.730539    0.715146
H      -1.150459   -0.286649    1.714839
H       0.174910   -1.680549   -1.532339
H       1.481403    0.911683   -2.378254
H       3.347002   -0.485947   -0.400852
H       2.589021    1.096634   -0.096411
