18

C      -0.262307    1.570117    0.018922
C       0.018906    0.064455   -0.036306
C       0.798442   -0.448021   -1.240622
C       2.259918   -0.073124   -1.422158
O       2.855059    0.984948   -0.738384
C       1.900026   -1.356734   -0.711453
N       1.825349   -1.247787    0.717316
C       0.828719   -0.416123    1.184838
O       0.650801   -0.113278    2.342186
H       0.661288    2.138104   -0.108176
H      -0.959178    1.862642   -0.771761
H      -0.703391    1.824045    0.986462
H      -0.937558   -0.473196    0.012582
H       0.246473   -0.732303   -2.128861
H       2.643344   -0.166706   -2.434627
H       3.052556    0.687457    0.158327
H       2.126516   -2.336008   -1.117687
H       2.497373   -1.654144    1.349133
