17

O      -0.001612   -0.003396   -0.016826
C       0.000339    1.204014    0.014606
C      -1.249766    2.041052   -0.022750
C      -1.677693    2.895556    1.163570
C      -1.014062    3.541112   -0.017182
C       0.469956    3.882985   -0.007182
C       1.294346    3.130167    1.063062
C       1.294872    2.033283   -0.018132
O       1.119011    3.062164   -1.035567
H      -2.047501    1.613347   -0.619372
H      -2.747338    3.037036    1.273409
H      -1.151514    2.807511    2.105184
H      -1.626456    4.150669   -0.673137
H       0.658581    4.947614   -0.159985
H       2.286793    3.570938    1.166767
H       0.876228    2.924379    2.048442
H       2.166876    1.398170   -0.180873
