18

N      -0.052344   -1.105582   -0.232095
C      -0.033394    0.038926   -0.072171
C       0.017082    1.485159    0.128911
C       1.445884    2.048851    0.051797
C       2.120966    1.894468   -1.352852
C       2.270003    3.397007   -1.666376
C       2.865896    3.983657   -0.367626
C       1.444610    3.598201    0.088091
O       0.965374    3.926855   -1.252549
H      -0.595683    1.974060   -0.636340
H      -0.433326    1.714277    1.102210
H       2.053587    1.623421    0.854819
H       3.076576    1.366470   -1.317186
H       1.475429    1.390812   -2.075845
H       2.577650    3.703929   -2.665152
H       3.728654    3.495912    0.093457
H       2.994607    5.064412   -0.425123
H       0.906851    4.102632    0.891919
