17

O      -0.008360    0.045459   -0.164985
C      -0.057971    1.231961   -0.016618
C      -1.167749    2.242227   -0.058106
C      -1.054893    3.148814    1.161939
C      -0.107783    3.368368    0.035036
C       1.038013    2.340906    0.072464
C       2.054791    2.378943    1.224877
C       3.034736    1.302167    1.153586
C       3.845983    0.419408    1.077341
H      -2.082789    2.181775   -0.633314
H      -1.867141    3.862920    1.250392
H      -0.721289    2.746755    2.113710
H      -0.094477    4.282161   -0.544271
H       1.576620    2.322573   -0.882031
H       2.573674    3.346717    1.201798
H       1.535011    2.338031    2.189206
H       4.552924   -0.370239    1.015308
