19

O       0.067408   -0.051673   -0.001414
C      -0.028865    1.156993   -0.039181
C      -1.388448    1.839108   -0.159889
C      -1.354139    3.200907   -0.878553
C      -0.169526    4.050370   -0.416493
C       0.131997    4.064010    1.124925
C       1.409768    3.272708    0.852820
C       1.211187    3.394500   -0.641725
C       1.188066    2.022648   -0.004211
H      -2.066866    1.132239   -0.644698
H      -1.766355    1.969615    0.862811
H      -1.276272    3.046089   -1.962345
H      -2.298551    3.730156   -0.706258
H      -0.228158    5.057800   -0.833301
H       0.361434    5.074486    1.471510
H      -0.608156    3.629631    1.803067
H       2.327408    3.339224    1.425109
H       1.919598    3.644101   -1.422131
H       2.098242    1.442471   -0.120541
