19

N      -0.007838    1.396380   -0.194117
C       0.071833    0.005420   -0.111151
O       1.146656   -0.571002   -0.154200
N      -1.127301   -0.644466    0.076626
C      -1.151772   -2.101782    0.035988
C      -1.832986   -2.673396    1.282259
C      -3.128124   -1.954461    1.547746
C      -3.384746   -0.750243    1.043736
C      -2.401140    0.040097    0.222101
H       0.876828    1.784249   -0.486973
H      -0.798435    1.797971   -0.675264
H      -1.700967   -2.434874   -0.857287
H      -0.118288   -2.433218   -0.052287
H      -2.014896   -3.745476    1.139204
H      -1.164973   -2.588650    2.150290
H      -3.870722   -2.451455    2.166233
H      -4.336455   -0.258497    1.224701
H      -2.227297    1.000119    0.722032
H      -2.854489    0.275625   -0.759515
