18

C      -0.055266    1.561285    0.058606
C       0.049296    0.049007   -0.050480
C       0.607687   -0.795989   -1.173485
C       1.624087   -0.306998   -2.190256
C       2.134531    1.090591   -2.284597
N       2.857020    0.068690   -1.496210
C       2.614727   -0.014715   -0.081014
O       3.367203    0.413720    0.751449
C       1.315528   -0.761892    0.168273
H       0.916416    2.054063    0.132792
H      -0.603446    1.993249   -0.785265
H      -0.601359    1.818756    0.971186
H      -0.811120   -0.444728    0.396231
H       0.022479   -1.655343   -1.478812
H       1.756888   -0.954979   -3.053160
H       2.655616    1.404990   -3.185036
H       1.631002    1.889089   -1.757886
H       1.325947   -1.559159    0.902124
