18

C       0.025758    1.563096   -0.056133
C      -0.013066    0.017326   -0.079558
O      -1.357466   -0.424547   -0.082053
C       0.682436   -0.511783   -1.305127
C       1.950033   -0.905301   -1.291392
C       2.782365   -0.922573   -0.042528
N       1.973514   -0.779197    1.159424
C       0.648078   -0.501860    1.207458
O      -0.020744   -0.617992    2.224460
H       1.051845    1.943529   -0.062070
H      -0.497982    1.947534   -0.935654
H      -0.483610    1.925830    0.841376
H      -1.577383   -0.538062    0.856280
H       0.091912   -0.517670   -2.216463
H       2.450510   -1.229996   -2.198395
H       3.332701   -1.871368    0.017828
H       3.548260   -0.131820   -0.089054
H       2.364747   -1.098084    2.034371
