21

C      -0.009308    1.529509   -0.044710
C      -0.041025    0.006489   -0.124982
N      -1.368806   -0.495976    0.199964
C      -1.592856   -1.877775    0.111101
C      -2.818256   -2.498338   -0.049127
N      -2.615057   -3.864715   -0.035769
C      -3.660749   -4.858156   -0.108348
C      -1.284218   -4.114333    0.132976
C      -0.616067   -2.911467    0.223173
H       0.995780    1.907153   -0.252955
H      -0.689546    1.978307   -0.778506
H      -0.311678    1.871221    0.949605
H       0.301802   -0.325109   -1.121240
H       0.668394   -0.409057    0.600712
H      -2.090237    0.034039   -0.271664
H      -3.808292   -2.086247   -0.162545
H      -4.324162   -4.658655   -0.956459
H      -3.210906   -5.843073   -0.248920
H      -4.265413   -4.879146    0.806485
H      -0.915754   -5.127498    0.170965
H       0.448475   -2.790362    0.342949
