19

C       0.057969    1.444981    0.097317
C       0.045826   -0.009708    0.047882
C       0.040257   -1.214480    0.027671
C      -0.000859   -2.676685   -0.052392
O      -1.324307   -3.189822    0.093936
C       0.641766   -3.181708   -1.349425
C       2.179526   -3.071105   -1.421271
O       2.329533   -4.501608   -1.314344
C       0.900843   -4.701238   -1.387168
H       0.881439    1.811142    0.720019
H       0.176228    1.879728   -0.901120
H      -0.874688    1.832500    0.521575
H       0.555937   -3.103330    0.792452
H      -1.896614   -2.676901   -0.487461
H       0.102175   -2.772075   -2.207005
H       2.575400   -2.684883   -2.369060
H       2.662149   -2.538002   -0.592602
H       0.513148   -5.271693   -0.535348
H       0.605156   -5.202611   -2.317371
