17

O      -0.086596    1.457145   -0.108865
C       0.034211    0.045988   -0.077761
C      -1.373222   -0.526063    0.124629
C      -1.412265   -2.014976    0.136284
C      -1.648189   -2.885601    1.141786
N      -1.542706   -4.175770    0.624094
C      -1.248591   -4.151392   -0.733103
O      -1.104611   -5.085579   -1.496560
N      -1.159497   -2.789317   -1.002138
H       0.791213    1.834643   -0.216110
H       0.465669   -0.341416   -1.014846
H       0.684464   -0.292029    0.743489
H      -1.768547   -0.150436    1.073159
H      -2.020031   -0.124737   -0.666515
H      -1.876526   -2.697157    2.176691
H      -1.695327   -5.037315    1.116463
H      -0.990949   -2.447789   -1.931881
