21

C      -0.094830    1.407281   -0.127834
C       0.027553   -0.111596    0.022251
C       0.768962   -0.497046    1.291609
O       0.834116   -1.935343    1.345559
C       1.463282   -2.456926    2.415580
O       1.954603   -1.791534    3.294994
C       1.465999   -3.967633    2.358736
C       2.172165   -4.589907    3.554854
O       2.107714   -5.998131    3.387115
H       0.889933    1.885092   -0.170827
H      -0.630325    1.666893   -1.045214
H      -0.641065    1.849032    0.712640
H      -0.966922   -0.572118    0.038295
H       0.554885   -0.536253   -0.839669
H       1.786903   -0.092431    1.307263
H       0.259245   -0.128565    2.188584
H       0.431484   -4.323941    2.301263
H       1.944014   -4.288396    1.426506
H       3.210181   -4.230722    3.598509
H       1.680497   -4.266025    4.483145
H       2.549929   -6.407519    4.136168
