19

C      -0.048132    1.504043    0.008859
C       0.009460    0.000290    0.012364
N       0.078947   -0.717421    1.069618
O       0.094881    0.072804    2.228286
C      -0.013269   -0.745834   -1.274315
C       0.974603   -0.677151   -2.473042
N      -0.043255   -1.720266   -2.960779
C       0.034879   -2.265821   -1.519624
C      -1.095505   -0.756020   -2.390660
H       0.834023    1.920998    0.505218
H      -0.103178    1.896510   -1.008329
H      -0.917817    1.854072    0.574157
H       0.147883   -0.589531    2.925507
H       0.992622    0.231841   -3.080878
H       1.980024   -1.080356   -2.324599
H       0.967978   -2.789617   -1.299699
H      -0.835330   -2.858319   -1.227932
H      -2.052427   -1.233995   -2.164125
H      -1.230697    0.147133   -2.992400
