21

O      -0.006873    1.451574   -0.077639
C       0.058635    0.034166   -0.048020
C      -1.366166   -0.499964    0.005119
C      -1.427150   -2.028545    0.047821
C      -2.862812   -2.571148    0.036288
O      -3.589057   -2.130304   -1.099972
C      -2.875978   -4.112573    0.156503
C      -4.215208   -4.682460    0.214644
C      -5.320993   -5.148644    0.274461
H       0.891041    1.794379   -0.103766
H       0.571031   -0.360233   -0.941856
H       0.624500   -0.320143    0.830069
H      -1.861950   -0.080565    0.889113
H      -1.919425   -0.134505   -0.865297
H      -0.886301   -2.450200   -0.813699
H      -0.912945   -2.402322    0.943353
H      -3.411557   -2.155250    0.889468
H      -3.187987   -2.524725   -1.882968
H      -2.327943   -4.536382   -0.698175
H      -2.310535   -4.404621    1.050732
H      -6.299549   -5.557489    0.322335
