13

F      -0.306393    0.126207   -0.251407
C      -0.052717    1.396959    0.028491
F       1.272997    1.560366    0.112933
F      -0.494063    2.154456   -0.982889
C      -0.715408    1.816748    1.324828
N      -1.421444    1.066972    2.056549
C      -1.841639    1.909867    3.191756
C      -1.202771    3.297430    2.914253
O      -0.491485    3.104364    1.662613
H      -2.934253    1.947538    3.233474
H      -1.492588    1.462515    4.127178
H      -1.931958    4.097371    2.766350
H      -0.476471    3.607769    3.669015
