14

O      -0.141082   -0.029886    0.023289
C      -0.076162    1.159870    0.046662
C      -1.046062    2.330476    0.244750
O       0.069450    3.243540    0.190202
C       1.046482    2.206479   -0.057304
C       2.159461    2.124469    0.993060
C       3.089850    3.242422    0.917120
C       3.849481    4.169203    0.833476
H      -1.764161    2.478871   -0.571990
H      -1.576802    2.354204    1.204548
H       1.479027    2.291903   -1.063183
H       1.705215    2.076191    1.989933
H       2.690008    1.175848    0.838266
H       4.522731    4.987775    0.769356
