17

C       0.085056    1.416164   -0.038347
N       0.025897   -0.029279    0.117785
C      -1.229665   -0.618694    0.055156
C      -2.505748   -0.086189    0.025483
C      -3.370278   -1.213374    0.036347
C      -4.866233   -1.222205    0.007068
N      -2.692693   -2.353441    0.065511
N      -1.384847   -1.968177    0.074025
H       1.126881    1.737591    0.028463
H      -0.336267    1.774147   -0.990295
H      -0.468205    1.891259    0.777231
H       0.716817   -0.509646   -0.443166
H      -2.777023    0.955512   -0.015285
H      -5.253813   -0.741111   -0.898149
H      -5.231318   -2.251169    0.032903
H      -5.286391   -0.683790    0.864016
H      -0.669303   -2.665748    0.180660
