19

C      -0.090624    1.384088   -0.166150
N      -0.010946   -0.064840   -0.108409
C      -1.244822   -0.757961    0.235561
C      -1.191474   -2.238348   -0.069395
C      -0.593428   -2.748023   -1.363132
C       0.161592   -2.871510   -0.052967
N       1.260918   -2.002460    0.249929
C       1.241394   -0.632206    0.046248
O       2.277892    0.011551   -0.002722
H       0.887998    1.770810   -0.443929
H      -0.836638    1.684791   -0.910390
H      -0.378416    1.816917    0.803041
H      -1.481002   -0.623746    1.304963
H      -2.059482   -0.281309   -0.325105
H      -2.016192   -2.801805    0.354753
H      -1.018375   -3.644430   -1.801176
H      -0.230645   -2.015571   -2.075851
H       0.274796   -3.856963    0.386091
H       2.190206   -2.369640    0.105154
