16

O      -0.465877    0.580232   -0.640211
C       0.227081    0.907556    0.288127
C       1.374765    1.889847    0.201796
C       1.481876    2.700288   -1.140223
N       1.125520    3.891879   -0.346700
C       1.031948    5.242706   -0.175237
C       0.884805    5.431074    1.192140
C       0.929909    4.165650    1.860985
C       1.084487    3.244792    0.850298
H       0.047646    0.511211    1.312517
H       2.300702    1.403036    0.530405
H       2.485577    2.742906   -1.570395
H       0.746443    2.423845   -1.897574
H       1.043667    5.945626   -0.991835
H       0.739307    6.388386    1.670626
H       0.855273    3.994884    2.922890
