15

O      -0.111386    1.260566    0.213839
C       0.072631   -0.050457    0.062074
N       1.146343   -0.676954   -0.283394
C       0.747617   -2.019020   -0.276234
C      -0.551431   -2.115531    0.075996
O      -1.008641   -0.804227    0.303459
N      -1.409035   -3.188517    0.230986
C      -2.428421   -3.148811    1.290719
C      -2.824896   -3.038419   -0.138437
H       0.735031    1.680176    0.011712
H       1.424478   -2.819232   -0.525207
H      -2.562645   -4.083759    1.826161
H      -2.487347   -2.248937    1.895451
H      -3.149702   -2.064536   -0.491989
H      -3.251390   -3.892000   -0.656460
