16

C       0.047187    1.506910   -0.042887
C      -0.063237    0.018952    0.130524
C      -1.349687   -0.747185   -0.187373
N      -1.338737   -1.975695    0.616578
C      -0.304896   -1.957627    1.373934
N      -0.050784   -2.884453    2.356291
C       0.611125   -0.784727    1.163922
O       1.104028   -0.757697   -0.190272
H       1.030244    1.861278    0.276812
H      -0.086240    1.782116   -1.094903
H      -0.722033    2.024399    0.539265
H      -2.234695   -0.145508    0.059482
H      -1.413338   -0.992890   -1.254204
H      -0.640399   -3.704300    2.310577
H       0.920124   -3.091403    2.536223
H       1.279172   -0.399715    1.929839
