12

N       0.087292    1.381567    0.133313
C      -0.012269    0.024603    0.042282
C      -1.122425   -0.802036    0.011484
O      -0.635019   -2.103124   -0.024420
C       0.686926   -1.967106   -0.013931
N       1.133527   -0.746798    0.023726
C      -2.535756   -0.552598    0.009610
O      -3.416686   -1.387163   -0.023602
H       0.989479    1.757312   -0.114587
H      -0.701089    1.936810   -0.155680
H       1.274836   -2.872445   -0.039422
H      -2.771576    0.537592    0.043630
