15

C      -0.026006    1.502368    0.064732
C      -0.020841    0.008717   -0.002735
C       0.003736   -0.772329   -1.089317
C      -0.007589   -2.250588   -0.756380
C       0.030116   -2.255712    0.767649
O       1.200449   -1.659587    1.330418
C       0.000930   -0.856517    1.223349
H       0.868290    1.879461    0.576366
H      -0.061485    1.948661   -0.932659
H      -0.889959    1.872268    0.631440
H       0.065107   -0.408813   -2.109836
H      -0.911305   -2.750130   -1.129859
H       0.850320   -2.783883   -1.184029
H      -0.392192   -3.080349    1.335707
H      -0.417932   -0.529066    2.171262
