16

O       0.154110    1.459753   -0.140025
C       0.025045    0.066913    0.004283
C       0.945680   -0.570942   -1.041575
C       2.384300   -0.157732   -0.791036
O       3.129606   -0.767377   -0.065362
C       0.158075   -0.551289    1.421702
O      -1.056109   -1.305914    1.228836
C      -1.397162   -0.547262    0.054531
H      -0.370670    1.890914    0.543193
H       0.870484   -1.658757   -0.965212
H       0.625490   -0.245798   -2.037272
H       2.712749    0.773058   -1.299127
H       1.026326   -1.185801    1.619583
H       0.058428    0.196204    2.223686
H      -2.175330    0.206050    0.253520
H      -1.715362   -1.182933   -0.779106
