12

O       0.044509    1.491601   -0.098526
C       0.021949    0.093662   -0.050057
C       0.679738   -0.534225   -1.202498
C       1.230604   -1.042561   -2.141242
C       0.718580   -0.389449    1.245475
O       1.281401    0.418861    1.951669
C       0.645409   -1.794871    1.546722
C       0.542931   -2.967552    1.795867
H       0.665864    1.763788    0.597362
H      -1.021642   -0.255274   -0.005457
H       1.711134   -1.486675   -2.978118
H       0.463293   -4.003804    2.021274
