21

O       0.003981    1.028363   -0.973022
C       0.006822    0.110946    0.108899
C      -1.322490   -0.594267    0.214217
O      -1.593741   -1.555088   -0.823032
C      -1.511199   -2.019786    0.530601
C      -0.414020   -3.004642    0.871599
C      -0.778504   -4.421759    0.471902
C      -0.610345   -4.866308   -0.958679
C       0.298522   -5.414111    0.114563
H      -0.230389    0.523760   -1.760383
H       0.825089   -0.615293    0.013914
H       0.186608    0.703183    1.013024
H      -2.159655    0.079521    0.407512
H      -2.485427   -2.287336    0.948381
H       0.514280   -2.713186    0.371247
H      -0.223984   -2.958181    1.952898
H      -1.641427   -4.825080    0.996736
H      -1.357783   -5.524892   -1.386582
H      -0.200409   -4.147395   -1.659256
H       1.328453   -5.072159    0.132453
H       0.171023   -6.446225    0.421821
