15

C      -0.193126    1.543621   -0.026387
N       0.179440    0.126891    0.061959
C       1.395497   -0.517620   -0.298682
C       2.702195    0.190001    0.232515
O       2.326275    1.396179    0.908878
C       2.205176    0.159967    1.600068
C       0.860471   -0.547733    1.127337
C       0.245891   -1.605516    1.865851
N      -0.213539   -2.455887    2.502288
H       0.475026    2.086451   -0.697223
H      -1.215123    1.601527   -0.414960
H      -0.158278    2.025154    0.952181
H       1.399822   -1.321053   -1.027477
H       3.704115    0.110805   -0.168028
H       2.699087    0.030138    2.554348
