19

C      -0.100113    1.496212   -0.060046
C       0.064731   -0.006313   -0.025406
C       1.428993   -0.641614   -0.190623
C       0.734799   -0.681622    1.134688
C       1.130548   -0.076815    2.484326
N       0.307904   -1.120122    3.154773
C       0.223444   -1.916086    1.906780
C      -1.112161   -2.421302    1.578128
N      -2.155572   -2.818658    1.278908
H       0.763010    2.003538    0.383598
H      -0.198108    1.853152   -1.090563
H      -0.993224    1.811037    0.490044
H      -0.763760   -0.563187   -0.457389
H       1.509626   -1.564157   -0.757291
H       2.288599    0.016154   -0.285427
H       2.207978   -0.143848    2.689051
H       0.794121    0.943968    2.693330
H       0.755349   -1.601715    3.926211
H       0.928947   -2.757987    1.852013
