17

N       0.980386    0.062707    0.604485
C      -0.094003    0.498809    0.088785
N      -1.296218   -0.146857    0.345640
C      -2.510484    0.250197   -0.177726
O      -2.625000    1.220302   -0.897126
C      -3.683511   -0.652208    0.197052
C      -5.020907    0.093216    0.119228
C      -6.194218   -0.854157    0.038759
O      -7.165099   -0.817608    0.747769
H       1.769357    0.641809    0.323330
H      -0.222481    1.360930   -0.567882
H      -1.241859   -0.955569    0.948969
H      -3.678620   -1.490627   -0.514923
H      -3.530688   -1.090533    1.189185
H      -5.161506    0.767469    0.967511
H      -5.006853    0.700763   -0.795617
H      -6.100435   -1.623482   -0.765855
