19

C      -0.103157    1.382075   -0.362837
C      -0.087319   -0.106670    0.041715
C       0.527360   -0.320304    1.426553
C      -1.508071   -0.642843   -0.006744
O      -2.226692   -0.828845    0.940956
O      -1.881935   -0.871878   -1.293597
C      -3.245661   -1.293957   -1.493553
C      -4.126542   -0.164533   -1.757943
C      -4.858230    0.759864   -1.986944
H       0.917322    1.775562   -0.381517
H      -0.545207    1.517894   -1.352880
H      -0.680764    1.971721    0.356572
H       0.486488   -0.654303   -0.714419
H      -0.065573    0.185914    2.192713
H       0.567249   -1.381578    1.687177
H       1.545870    0.078319    1.453067
H      -3.216527   -1.969993   -2.352369
H      -3.582258   -1.843143   -0.610178
H      -5.508881    1.576690   -2.180592
