18

C      -0.083581    1.557972   -0.056357
C       1.415150    1.298041    0.004908
C       1.173358    0.122235    0.983297
C       1.923788   -0.919951    0.136602
C       3.312783   -0.849286   -0.471223
O       3.065751   -0.782926   -1.906915
C       1.725468   -0.334722   -2.210495
C       1.204036   -0.006935   -0.838801
N      -0.084260    0.032338    0.022554
H      -0.556327    2.032859    0.809343
H      -0.510977    1.945256   -0.986630
H       2.260257    1.992208   -0.016541
H       1.004314    0.168489    2.060817
H       1.515204   -1.932798    0.194707
H       3.873376    0.039351   -0.151744
H       3.931263   -1.732965   -0.296849
H       1.782630    0.519610   -2.893752
H       1.161171   -1.143608   -2.692253
