16

C      -0.123208    1.489213   -0.047730
C      -0.059747   -0.001724   -0.071569
N      -0.255386   -0.728725   -1.110460
C      -0.056479   -2.122922   -0.674488
C       1.128746   -2.666579   -1.484971
O       2.175315   -3.027721   -1.024996
C       0.182395   -2.080312    0.829419
N       0.297088   -3.080811    1.596872
N       0.219935   -0.708781    1.094035
H       0.833909    1.913452    0.275066
H      -0.357443    1.854559   -1.047251
H      -0.891881    1.836188    0.651620
H      -0.935330   -2.730948   -0.922453
H       0.933350   -2.652672   -2.578144
H       0.461976   -2.808177    2.567144
H       0.370767   -0.302056    2.002079
