18

C      -0.127945    1.394229    0.181413
N       0.040640   -0.027464   -0.034157
C       0.623227   -0.531309   -1.148763
O       1.062956    0.108234   -2.078684
O       0.639948   -1.897262   -1.073037
C       1.270801   -2.581291   -2.165489
C       2.696164   -2.989071   -1.823700
C       0.367572   -3.755932   -2.506733
O       0.753727   -4.786784   -2.990442
H       0.265931    1.909211   -0.695243
H      -1.184873    1.656242    0.301889
H       0.420348    1.732872    1.067656
H      -0.269145   -0.686272    0.660369
H       1.268297   -1.903605   -3.030173
H       3.090717   -3.622981   -2.621023
H       3.328442   -2.104455   -1.720689
H       2.719388   -3.557236   -0.889675
H      -0.706718   -3.569568   -2.284520
