17

C       0.200060    1.687555   -0.159241
C       1.145892    0.536047   -0.491690
C       0.481472   -0.556096   -1.301275
O      -0.683603   -0.531376   -1.628365
C       1.314993   -1.734537   -1.762998
N       2.772724   -1.674318   -1.671095
C       2.074828   -2.653734   -0.835540
C       2.131987   -2.469228    0.595357
N       2.168289   -2.353602    1.744994
H      -0.194142    2.147713   -1.069069
H      -0.654470    1.335829    0.424102
H       0.722093    2.454123    0.419355
H       2.025922    0.873613   -1.053783
H       1.560072    0.087457    0.420467
H       0.854034   -2.243494   -2.606907
H       3.216888   -2.133566   -2.461471
H       2.089253   -3.699998   -1.130915
