15

C       0.018826    1.434168   -0.229396
C      -0.147907   -0.023528    0.093245
N      -1.285988   -0.589193   -0.123602
C      -1.469361   -1.952946    0.072019
N      -2.425589   -2.429978    0.761015
C      -0.461905   -2.746102   -0.702255
N       0.789824   -2.707747   -0.439103
C       1.293863   -1.824773    0.497399
N       0.965932   -0.596596    0.699518
H       0.870162    1.575000   -0.903837
H      -0.887679    1.827857   -0.687720
H       0.246029    1.989314    0.686029
H      -2.428917   -3.450749    0.708021
H      -0.801860   -3.383880   -1.521742
H       2.155093   -2.210525    1.042350
