15

N      -0.042187   -1.161397    0.029929
C      -0.022476   -0.006928   -0.013039
C       0.010809    1.443058   -0.027505
C      -0.893896    2.204582    1.012313
C      -1.296394    3.090977   -0.150746
C      -0.160315    3.449464   -1.075605
C       1.240504    3.299791   -0.600679
C       1.376844    2.098841   -0.040981
N      -0.785373    2.107457   -1.172732
H      -1.734447    1.580423    1.319038
H      -0.399993    2.633964    1.887167
H      -2.267185    3.564313   -0.256369
H      -0.397725    4.118244   -1.896664
H       1.994360    4.070482   -0.687057
H       2.239476    1.681718    0.459976
