17

C      -0.085728    1.557283    0.003271
C       0.077830    0.037663   -0.017903
N       0.782017   -0.468512    1.167786
C       2.097130   -0.768098    1.124515
C       2.747036   -1.225251    2.233186
C       1.957637   -1.366320    3.400157
N       0.684729   -1.085572    3.482389
C       0.017312   -0.601427    2.374109
O      -1.156218   -0.289711    2.358974
H       0.885885    2.060828    0.026693
H      -0.619197    1.884231   -0.894176
H      -0.664439    1.857447    0.878736
H      -0.902004   -0.442639   -0.031713
H       0.641690   -0.287385   -0.897289
H       2.587113   -0.626511    0.166574
H       3.798386   -1.473301    2.212181
H       2.424688   -1.739823    4.312371
