17

O       0.645425    1.064041   -0.556683
C      -0.024917   -0.081505   -0.062703
C      -0.051142   -1.162397   -1.072717
N      -0.040358   -2.000587   -1.867950
C       0.600836   -0.578640    1.233708
C       0.253932   -0.071227    2.574818
C      -1.231976    0.244274    2.726534
C      -1.493361   -1.207745    2.252476
N      -0.017408   -1.524563    2.179324
H       1.552790    0.817523   -0.771304
H      -1.055028    0.243264    0.100185
H       1.652123   -0.831378    1.097648
H       1.023478    0.186953    3.295465
H      -1.523141    0.401661    3.765844
H      -1.625366    1.073500    2.130524
H      -1.947945   -1.838000    3.017807
H      -2.036270   -1.360516    1.314861
