14

N       0.038666    1.091242   -0.522127
C      -0.008261   -0.071197   -0.070348
O       0.993008   -0.907167    0.419000
C       0.065883   -1.994866    0.633381
C      -0.637861   -1.921119    2.002060
O      -1.659173   -1.032218    1.489549
C      -1.116272   -1.086456    0.161989
C       0.470856   -3.300770    0.024396
O       1.432839   -3.453072   -0.678601
H       0.984981    1.475483   -0.501301
H      -1.076152   -2.869005    2.335814
H      -0.037943   -1.474799    2.800098
H      -1.853724   -1.281701   -0.616120
H      -0.221952   -4.136055    0.272558
