20

C      -0.089639    1.535974   -0.193599
C      -0.061355    0.003055   -0.012145
C       0.711898   -0.399477    1.249783
C      -1.500140   -0.495309    0.050489
O      -2.163393   -0.443096    1.063790
C      -2.089459   -1.046107   -1.238862
N      -3.478682   -1.366955   -1.051379
C      -4.277142   -1.765104   -2.070396
O      -3.906996   -1.908136   -3.217996
H       0.930345    1.923004   -0.272545
H      -0.631692    1.831169   -1.097638
H      -0.573667    2.010804    0.665018
H       0.415650   -0.437997   -0.896209
H       0.203845   -0.020370    2.139889
H       0.786980   -1.487097    1.343194
H       1.725702    0.010275    1.222679
H      -1.951461   -0.318559   -2.050500
H      -1.502614   -1.928040   -1.537845
H      -3.833361   -1.241017   -0.113395
H      -5.317634   -1.948628   -1.737646
