20

C      -0.128854    1.244368   -0.800731
N      -0.045159   -0.104252   -0.262171
C      -1.070033   -0.641615    0.231223
C      -1.133791   -2.028573    0.839383
C      -2.622008   -2.328959    0.808966
C      -3.196930   -3.386559   -0.097295
C      -3.256840   -3.547516    1.405890
C      -3.258393   -0.952304    0.902584
O      -2.313291   -0.056290    0.300040
H       0.356124    1.945047   -0.109475
H       0.432824    1.286301   -1.739776
H      -1.151486    1.594655   -0.981360
H      -0.513570   -2.731737    0.282466
H      -0.754028   -1.988989    1.868866
H      -4.120585   -3.167477   -0.623467
H      -2.505373   -4.012949   -0.651031
H      -2.610487   -4.284912    1.870393
H      -4.221826   -3.437740    1.891421
H      -4.205722   -0.867053    0.362455
H      -3.420128   -0.644715    1.945112
