19

C       0.031454    1.425760    0.224552
C       0.149147   -0.081011    0.009057
C       0.825562   -0.435093   -1.299695
O       1.241885    0.351540   -2.113617
O       0.907669   -1.774517   -1.447701
C       1.540809   -2.212296   -2.671813
C       1.561541   -3.663421   -2.699891
C       1.594787   -4.864786   -2.754301
C       1.631801   -6.318062   -2.813987
H       1.016744    1.898539    0.231032
H      -0.548460    1.891709   -0.576043
H      -0.460882    1.637806    1.177570
H       0.715984   -0.560727    0.815679
H      -0.833375   -0.567488    0.016745
H       0.988772   -1.800209   -3.523721
H       2.552147   -1.793472   -2.717517
H       2.660638   -6.688852   -2.875857
H       1.174193   -6.756886   -1.920658
H       1.086399   -6.695691   -3.685625
