19

C      -0.330255    1.619051    0.300875
C      -0.094075    0.117260    0.210824
C       0.257230   -0.485406   -1.186597
N       1.033475    0.377683   -2.074017
C       2.263683    0.093458   -1.497400
O       3.355975    0.572509   -1.643300
C       1.603681   -0.962490   -0.562091
N       1.179074   -0.442721    0.744001
C       2.094346    0.302736    1.584194
H       0.462079    2.194194   -0.185622
H      -1.284406    1.877688   -0.171302
H      -0.385021    1.940068    1.345829
H      -0.947708   -0.405267    0.663809
H      -0.464914   -1.136987   -1.676198
H       0.749237    1.219693   -2.557860
H       1.998618   -1.980579   -0.574900
H       2.497091    1.221796    1.129990
H       1.595980    0.568311    2.522256
H       2.945051   -0.340696    1.832596
