21

C      -0.052716    1.559021   -0.029951
C       0.024551    0.026247   -0.040529
C       0.745273   -0.461881   -1.304190
C       0.710094   -0.525003    1.244459
C       0.037943   -0.056011    2.555574
C       0.764859   -1.984880    1.239091
C       0.796412   -3.193311    1.273244
C       0.811180   -4.631995    1.283480
O       1.546684   -5.309237    1.965680
H       0.945038    2.002290    0.075430
H      -0.474985    1.921873   -0.972122
H      -0.679522    1.942419    0.778942
H      -0.998925   -0.372654   -0.052250
H       1.769839   -0.072643   -1.344926
H       0.799374   -1.552969   -1.342043
H       0.224911   -0.116356   -2.202758
H       1.747468   -0.157427    1.248929
H       0.515992   -0.523789    3.419449
H       0.119451    1.027250    2.665937
H      -1.021866   -0.328509    2.565369
H       0.073712   -5.097200    0.597219
