15

O       0.115274    1.391348    0.042205
C       0.045798   -0.009842   -0.034012
C      -1.412819   -0.529379    0.009864
C      -1.429985   -2.075350   -0.112208
C      -2.777285   -2.627642   -0.219017
N      -3.844260   -3.059768   -0.315234
C      -2.063359   -0.070662    1.233458
C      -2.540969    0.331079    2.261260
H      -0.313671    1.657182    0.864909
H       0.496938   -0.292168   -0.990887
H       0.621387   -0.497934    0.769130
H      -1.940697   -0.104992   -0.852397
H      -0.860553   -2.372389   -1.000304
H      -0.933055   -2.521120    0.756118
H      -2.998971    0.671287    3.157738
