12

O       0.009605    0.054980    0.013542
C      -0.000514    1.245020    0.072773
C      -1.067948    2.308116   -0.005855
C      -0.400595    3.527384    0.612116
O       0.844844    3.137709    1.184209
C       1.082525    2.355842   -0.014906
C      -0.018743    3.190328   -0.792142
C      -0.114994    3.804277   -2.058923
N      -0.180149    4.311465   -3.097648
H      -2.127859    2.228113   -0.200524
H      -0.938201    4.371575    1.022372
H       2.125835    2.198249   -0.269737
