13

N      -0.236595    1.423400   -0.225745
C      -0.077090    0.182743   -0.170165
O       1.190045   -0.403666   -0.235724
C       1.434333   -1.630437   -0.737324
C       0.614437   -2.463172   -1.406227
C      -0.790952   -2.246811   -1.694122
N      -1.619125   -1.510888   -1.047985
C      -1.212587   -0.804971    0.078692
O      -1.720696   -0.908810    1.164267
H       0.646866    1.911557   -0.386138
H       2.476146   -1.885038   -0.575939
H       1.074144   -3.357756   -1.811573
H      -1.191239   -2.788805   -2.553204
