19

C      -0.214211    1.525915   -0.014094
C      -0.002046    0.018792   -0.005362
C       1.159283   -0.593209   -0.836795
C       2.133757   -0.213478    0.302231
C       0.893338   -0.601583    1.158491
C       0.760617   -2.090211    0.778069
O       0.968344   -2.006189   -0.649247
C       0.695192   -0.198105    2.577277
O       1.459824    0.489371    3.209078
H       0.700293    2.093002    0.174218
H      -0.609058    1.842288   -0.985617
H      -0.945047    1.819389    0.746478
H      -0.954501   -0.497742   -0.161689
H       1.326067   -0.379308   -1.891627
H       3.031311   -0.826223    0.404453
H       2.382450    0.843625    0.364643
H       1.531795   -2.720326    1.235619
H      -0.226913   -2.513516    0.997270
H      -0.254594   -0.563524    3.034638
