19

C       0.138037    1.519710   -0.068803
C      -0.057259    0.010159    0.044129
C      -1.499830   -0.427372    0.077765
N      -2.463612    0.395366    0.094268
C      -3.833066   -0.105786    0.071751
C      -3.937689   -1.555057   -0.411640
C      -2.862076   -2.367366    0.295089
O      -1.567074   -1.792388    0.085467
H       1.204448    1.764303   -0.082012
H      -0.319016    1.906905   -0.982783
H      -0.329319    2.038786    0.771105
H       0.426040   -0.513855   -0.790231
H       0.429384   -0.380874    0.947181
H      -4.256944   -0.009610    1.081331
H      -4.425581    0.558700   -0.567187
H      -4.927173   -1.977630   -0.208619
H      -3.772013   -1.603006   -1.493969
H      -3.056747   -2.407915    1.375737
H      -2.795654   -3.392446   -0.078000
