17

C      -0.009615    1.505783    0.046413
C       0.008330    0.014001   -0.011055
C       0.014352   -0.863012   -1.081725
N      -0.010137   -0.462239   -2.428802
C      -0.072349   -1.268898   -3.526480
O      -0.115779   -2.480579   -3.526223
C       0.056161   -2.195680   -0.577033
C       0.079767   -2.094625    0.792505
N       0.053591   -0.765407    1.124055
H       0.992778    1.947148    0.129411
H      -0.478217    1.928579   -0.848494
H      -0.594996    1.864131    0.900939
H       0.032281    0.528500   -2.609430
H      -0.076262   -0.665490   -4.456487
H       0.060850   -3.091530   -1.171083
H       0.106064   -2.857753    1.553057
H       0.053778   -0.401583    2.060484
