14

N       0.090884    1.386437    0.126828
C      -0.009267   -0.001526    0.019883
C      -1.127152   -0.822071   -0.004718
C      -0.593895   -2.136755   -0.000194
C       0.783020   -2.088356    0.016150
N       1.153472   -0.752281    0.000042
C       1.182858   -3.436110   -0.034945
N       0.132976   -4.237732   -0.061009
O      -1.015278   -3.406926   -0.049631
H       0.651360    1.807209   -0.606403
H      -0.818380    1.828341    0.147438
H      -2.153763   -0.499258   -0.052672
H       2.046012   -0.378925    0.273419
H       2.166474   -3.883067   -0.040782
