21

C      -0.367206    1.443414    0.165269
C      -0.064936   -0.045977    0.014788
C       0.773513   -0.469840   -1.236173
C       0.773171    0.380799   -2.496158
C       2.066748   -0.530725   -0.339700
C       2.914190    0.644278   -0.362676
C       3.605451    1.630258   -0.316330
C       1.107496   -0.559212    0.911172
O       1.472840    0.139733    2.063288
H       0.518497    2.067503    0.015533
H      -1.123952    1.763948   -0.557743
H      -0.750882    1.647056    1.169521
H      -0.994552   -0.610544    0.138715
H       0.516676   -1.500936   -1.500110
H       1.078206    1.410333   -2.292625
H       1.464889   -0.027170   -3.241156
H      -0.224740    0.403774   -2.947170
H       2.682736   -1.425298   -0.471626
H       4.233675    2.486695   -0.308806
H       0.937469   -1.595223    1.217283
H       1.935376    0.941891    1.788114
