21

C       0.205356    1.072781    0.657644
O       0.555543   -0.240978    0.267466
C       0.842396   -0.437363   -1.113778
C      -0.284433    0.005360   -2.049231
C       2.161143    0.279922   -1.437434
O       2.432390    0.789684   -2.492987
C       1.130623   -1.929644   -1.285259
C       1.805293   -2.737479   -0.204609
C       0.347093   -2.961740   -0.514156
H       0.921215    1.823742    0.292529
H      -0.797428    1.355894    0.312905
H       0.215992    1.085816    1.750062
H      -0.474518    1.079216   -1.979006
H      -0.002814   -0.203849   -3.083340
H      -1.202556   -0.538061   -1.812042
H       2.884086    0.252426   -0.590466
H       1.387112   -2.180704   -2.309933
H       2.525945   -3.488703   -0.507665
H       2.033049   -2.233138    0.726259
H      -0.370042   -2.597555    0.211021
H       0.055901   -3.866479   -1.035899
