16

N      -0.229115    1.138819   -0.335074
C      -0.107840   -0.076768   -0.057129
O       0.964528   -0.803590    0.412422
C       0.150535   -2.013382    0.546213
C      -1.055150   -1.275908   -0.061900
O      -2.164446   -1.216194    0.786678
C      -3.207193   -0.387972    0.300835
C      -4.311188   -0.375760    1.341700
O      -5.389323    0.121985    1.159187
H       0.633552    1.658590   -0.162697
H       0.573159   -2.839492   -0.027926
H       0.014506   -2.284804    1.594829
H      -1.335047   -1.604898   -1.072605
H      -2.855507    0.640310    0.133719
H      -3.611251   -0.761586   -0.653146
H      -4.028692   -0.865200    2.299909
