18

O      -0.153421    1.338075   -0.092456
N       0.017542   -0.063255   -0.070119
C      -1.097485   -0.650392   -0.026471
C      -2.570842   -0.340090    0.079466
C      -3.200218   -0.383767   -1.325239
C      -3.103456   -1.834288   -1.868339
C      -1.862277   -2.609320   -1.351779
C      -1.507724   -2.097049    0.057163
O      -2.739483   -1.650390    0.717325
H       0.757276    1.651867   -0.088981
H      -2.902067    0.486952    0.709788
H      -4.249053   -0.073054   -1.284996
H      -2.676107    0.332846   -1.967260
H      -3.991842   -2.372533   -1.531231
H      -3.129697   -1.837035   -2.961573
H      -2.082012   -3.681360   -1.323664
H      -0.992139   -2.474717   -2.003951
H      -0.926421   -2.792099    0.666527
