14

N       0.049091    1.212977   -0.159583
C      -0.009261   -0.032286   -0.066010
C      -1.094185   -1.035593    0.000697
C      -0.617688   -2.273655   -0.798876
O       0.370354   -2.118842   -1.796743
C       1.439216   -1.469188   -1.198914
N       2.537784   -1.196845   -1.738890
N       1.054559   -1.071788    0.131848
C      -0.034629   -2.025176    0.521764
H       1.017868    1.538335   -0.143540
H      -2.130461   -0.895346    0.277658
H      -1.336202   -3.051217   -1.018726
H       2.551338   -1.519342   -2.706714
H       0.021019   -2.627087    1.417222
