18

C      -0.100895   -1.240887   -0.087799
C      -0.053764   -0.041906   -0.007959
C       0.015054    1.404469    0.051039
C      -0.237609    2.116364    1.401399
N       0.844541    1.719878    2.326839
C       1.080502    2.802423    1.334366
C       1.415027    2.105502    0.033667
C       2.723365    1.543696   -0.412094
C       2.084826    2.687339   -1.172818
H      -0.145048   -2.300606   -0.136072
H      -0.623448    1.846308   -0.722022
H      -1.195166    2.464212    1.767414
H       0.642460    2.169507    3.220279
H       1.362797    3.801155    1.644552
H       3.600598    1.748447    0.192399
H       2.709249    0.558196   -0.865966
H       1.654326    2.480258   -2.147812
H       2.528208    3.674520   -1.084309
