20

C       0.059037    1.254391   -0.224094
N       0.106999   -0.189667   -0.143283
C       0.575348   -0.693092    0.910624
O       0.618585   -2.026376    1.083213
C       1.324933   -2.514724    2.246711
C       0.761369   -3.899435    2.631277
C       1.804093   -4.939326    2.148960
C       3.020366   -4.099216    1.852132
C       2.771903   -2.792954    1.921020
H       0.463661    1.768982    0.663915
H       0.621336    1.593818   -1.101820
H      -0.977127    1.583548   -0.365721
H       0.961120   -0.109601    1.763625
H       1.195811   -1.777084    3.048993
H       0.650884   -3.955139    3.717550
H      -0.226784   -4.039112    2.189663
H       2.001925   -5.705574    2.906895
H       1.476411   -5.475916    1.249266
H       3.977557   -4.537153    1.589482
H       3.480462   -1.998208    1.717398
