17

N      -0.121412    1.302217    0.069874
C      -0.040805    0.043942    0.039659
O      -1.167218   -0.690274   -0.110601
C      -1.029423   -2.112192   -0.042482
C      -0.842065   -2.646920    1.415327
N      -2.301380   -2.861280    1.507901
C      -2.454499   -2.726772    0.042002
C      -0.131749   -2.627439   -1.063500
C       0.609949   -3.065402   -1.902184
H       0.807533    1.705375    0.174942
H       0.873799   -0.556445    0.110447
H      -0.228284   -3.555824    1.437269
H      -0.442172   -1.920455    2.130787
H      -2.577035   -3.759135    1.886476
H      -3.250258   -2.046327   -0.273457
H      -2.526168   -3.668596   -0.514250
H       1.261123   -3.447870   -2.649518
