18

O      -0.011915    0.002035   -0.101680
C       0.049197    1.213547   -0.065911
N       1.201790    1.931692    0.007695
C       2.499722    1.303919    0.122266
C       3.499094    1.521758   -0.986669
C       3.507009    2.423997    0.228685
C       2.728059    3.727451    0.226449
C       1.928836    4.151261   -0.986542
C       1.263708    3.370921    0.123765
H      -0.844589    1.868579   -0.075101
H       2.514072    0.390774    0.703685
H       4.302797    0.796753   -1.059614
H       3.157273    1.899871   -1.942387
H       4.340705    2.355906    0.916248
H       3.059527    4.495600    0.913826
H       1.677064    5.204184   -1.059468
H       2.094044    3.667092   -1.941194
H       0.489423    3.831856    0.727263
