19

C       0.099566    1.531747   -0.016746
O       0.264571    0.137321   -0.146379
C       0.614970   -0.552240    1.039662
C       1.997601   -0.155059    1.555427
C      -0.475320   -0.609443    2.160098
C      -0.264836   -2.146614    2.230490
C       0.449730   -2.081886    0.853990
H       1.046659    2.056371    0.173768
H      -0.308034    1.892292   -0.964745
H      -0.605663    1.790581    0.787405
H       2.022147    0.883352    1.900589
H       2.288157   -0.787101    2.400344
H       2.743793   -0.275908    0.763473
H      -0.304407   -0.028558    3.070298
H      -1.456141   -0.354250    1.750000
H       0.411268   -2.436102    3.039233
H      -1.160882   -2.766572    2.295515
H      -0.234141   -2.279138    0.025360
H       1.360666   -2.669973    0.716610
