22

C      -0.389101    1.462240   -0.130096
C      -0.053297   -0.007099    0.001161
C       1.305598   -0.601016   -0.324921
C       2.510763    0.266468   -0.686215
C       3.414555    0.551694    0.523763
C       2.611231    1.165187    1.675010
C       1.514350    0.206117    2.182961
C       0.792298   -0.597686    1.106311
H       0.440618    2.118962    0.137835
H      -0.677919    1.704855   -1.159563
H      -1.233239    1.725598    0.517334
H      -0.886781   -0.642727   -0.291180
H       1.278482   -1.559111   -0.835446
H       3.088635   -0.235076   -1.469186
H       2.187425    1.221529   -1.119911
H       3.878226   -0.385084    0.861873
H       4.231759    1.221116    0.231824
H       3.273230    1.418585    2.510714
H       2.174569    2.114194    1.340718
H       1.994049   -0.519699    2.852098
H       0.794396    0.754087    2.804236
H       0.433431   -1.555183    1.475148
