13

C      -0.032168    1.509124    0.017363
C      -0.004655    0.011402   -0.014546
N      -0.028441   -0.605650   -1.161555
C      -0.004357   -1.983603   -1.229882
O      -0.022331   -2.644236   -2.222217
O       0.047849   -2.705903    0.008088
C       0.071609   -2.060062    1.172578
C       0.047367   -0.715367    1.218284
F       0.070693   -0.053176    2.378300
H       0.855423    1.894961    0.530509
H      -0.071365    1.897089   -0.999733
H      -0.899942    1.861575    0.585469
H       0.110899   -2.705474    2.042941
