19

C       0.212532    1.543503   -0.203430
C       0.037229    0.041013    0.020666
N       0.536390   -0.721410   -1.144968
C       1.396982   -1.531572   -0.699824
O       1.675479   -1.568661    0.629699
C       0.804788   -0.578642    1.243948
C       1.630881    0.365286    2.091956
C       2.826632   -0.111989    2.824773
N       2.967934    0.798804    1.669512
H       1.268008    1.820259   -0.262259
H      -0.272295    1.824690   -1.141480
H      -0.247329    2.118770    0.605983
H      -1.033411   -0.170453    0.119561
H       1.970833   -2.236641   -1.291540
H       0.112385   -1.124870    1.894427
H       1.036210    1.156930    2.543427
H       3.082609    0.323404    3.786251
H       3.116577   -1.149815    2.692835
H       3.251204    0.243496    0.864485
