25

C       0.085168    1.552328   -0.224987
C      -0.028730    0.057359    0.090842
C      -1.474728   -0.492075    0.129557
C      -2.299628    0.175210    1.235345
O      -2.148059   -0.134099   -1.089813
C      -1.454032   -2.045279    0.247147
C      -0.697012   -2.601647    1.462593
C      -2.860881   -2.651119    0.178698
O      -2.712069   -4.036801   -0.120434
H       1.132379    1.833048   -0.373461
H      -0.471026    1.801201   -1.132257
H      -0.306078    2.172143    0.587282
H       0.524466   -0.513563   -0.669049
H       0.465805   -0.154809    1.044575
H      -2.340804    1.254838    1.076134
H      -3.327560   -0.194857    1.233005
H      -1.864428   -0.011130    2.220524
H      -1.674655   -0.553501   -1.817433
H      -0.938397   -2.407564   -0.656051
H      -0.803667   -3.688994    1.481761
H       0.370102   -2.368799    1.432047
H      -1.102444   -2.209385    2.402030
H      -3.378008   -2.517627    1.141789
H      -3.445003   -2.136937   -0.594673
H      -3.585467   -4.438216   -0.111381
