21

C       0.010802    1.504287   -0.299091
C      -0.025542    0.025366   -0.005763
O       1.217098   -0.684770   -0.016147
C       0.489973   -0.611382    1.220509
C       1.141595    0.124584    2.358829
C       0.266527    0.533248    3.598644
C       1.246334   -0.210893    4.515317
C       1.299708   -1.660515    4.131174
C       2.066494   -0.663390    3.305018
H       0.810887    2.010770    0.243761
H       0.171693    1.671169   -1.369435
H      -0.943990    1.968756   -0.029073
H      -0.829167   -0.506925   -0.520922
H       0.026309   -1.559670    1.501939
H       1.668219    0.997217    1.968584
H       0.246397    1.614682    3.747435
H      -0.764731    0.162912    3.612381
H       1.592117    0.141209    5.479258
H       1.914965   -2.290476    4.765648
H       0.416008   -2.162021    3.742769
H       3.141681   -0.733611    3.193746
