20

C      -0.432909    1.506210    0.376695
C      -0.136282    0.023416    0.215163
C       0.290502   -0.483513   -1.167885
N       1.588890    0.163773   -1.480864
C       1.552613   -1.053083   -0.639429
C       1.235126   -0.583868    0.803321
C       2.241488    0.386734    1.429839
C       0.969924   -1.710427    1.684808
C       0.754950   -2.641442    2.416038
H       0.349183    2.115981   -0.081096
H      -1.383665    1.755868   -0.107862
H      -0.519349    1.782804    1.432614
H      -0.963336   -0.578680    0.598177
H      -0.352097   -0.843597   -1.962209
H       1.857331   -0.128870   -2.419483
H       2.090680   -1.951278   -0.916212
H       2.493645    1.175367    0.719067
H       1.832657    0.838592    2.338344
H       3.157919   -0.144582    1.704486
H       0.565390   -3.460991    3.063833
