19

C      -0.132362    1.595400    0.140165
C      -0.006527    0.103350    0.039955
C      -0.863107   -0.884558    0.822716
C       0.628685   -0.933826    0.940898
O       1.194771   -1.663740   -0.158531
C       0.672532   -0.680009   -1.064432
C       0.239306   -1.029865   -2.457856
C       1.490306   -0.194563   -2.208821
O       1.478510    1.176951   -2.479668
H       0.808078    2.092013   -0.109756
H      -0.898076    1.975999   -0.545212
H      -0.424575    1.885076    1.154748
H      -1.386513   -0.445070    1.667221
H      -1.385174   -1.696713    0.324504
H       1.210356   -0.865420    1.852551
H       0.371797   -2.052895   -2.793552
H      -0.634428   -0.516769   -2.848166
H       2.447570   -0.696378   -2.353839
H       1.466574    1.290263   -3.436178
