18

C      -0.045044    1.642851    0.384758
C      -0.057946    0.144132    0.037341
C       0.776488   -0.641483    0.958338
C       1.451077   -1.295660    1.707622
N      -1.418783   -0.375187   -0.011607
C      -1.897859   -1.662971   -0.532353
C      -3.256815   -1.364161    0.155755
C      -2.567646   -0.096312    0.707893
O      -2.863320    0.790996    1.463786
H       0.984949    2.006669    0.374420
H      -0.628394    2.198497   -0.353622
H      -0.480528    1.814948    1.368748
H       0.358783    0.024965   -0.972909
H       2.048852   -1.866608    2.374592
H      -1.910398   -1.719639   -1.625599
H      -1.358994   -2.525028   -0.125209
H      -4.094700   -1.167659   -0.515041
H      -3.561387   -2.072138    0.928160
