22

C       3.124857    0.154854   -4.081232
C       2.408451   -1.065492   -3.497799
C       2.305948   -1.025351   -1.966437
C       1.563668   -2.227365   -1.417765
C       2.287074   -3.463066   -0.998653
N       1.603968   -2.629504   -0.010479
C       2.415596   -1.889850    0.940022
C       2.459895   -2.634317    2.266951
O       3.356747   -2.541360    3.063117
H       2.603501    1.082914   -3.821500
H       4.148721    0.233858   -3.699193
H       3.180644    0.098907   -5.172602
H       1.399714   -1.138569   -3.924630
H       2.931954   -1.982004   -3.797580
H       3.312988   -0.967388   -1.538260
H       1.785576   -0.105695   -1.664024
H       0.571318   -2.356447   -1.850946
H       1.864543   -4.450225   -1.165596
H       3.376284   -3.425443   -1.023445
H       3.449445   -1.679250    0.629482
H       1.931309   -0.922166    1.139414
H       1.566878   -3.272561    2.448250
