24

C      -0.333330    1.539249    0.338006
C       0.012784    0.047792    0.169627
C       0.870433   -0.402595    1.368346
C      -1.300261   -0.760675    0.138868
C       0.784120   -0.299640   -1.118551
C       0.302336    0.063363   -2.554372
C       1.731348    0.548934   -2.795372
C       2.059761    1.648470   -1.876863
N       2.169456    0.263260   -1.366115
H       0.559014    2.150770    0.494606
H      -0.879835    1.937287   -0.523526
H      -0.974230    1.671535    1.216811
H       0.363148   -0.183209    2.314039
H       1.064239   -1.480175    1.333481
H       1.837333    0.108965    1.369640
H      -1.940537   -0.454449   -0.695758
H      -1.105523   -1.833883    0.037292
H      -1.866606   -0.610750    1.064111
H       0.943683   -1.383281   -1.085536
H       0.004411   -0.806873   -3.141210
H      -0.469257    0.832380   -2.658637
H       2.355054    0.276945   -3.640524
H       3.035600    2.115236   -1.972025
H       1.276100    2.314047   -1.532613
