20

C       0.047851    1.385145    0.093492
O      -0.053371   -0.015755   -0.052177
C       0.629545   -0.546109   -1.170361
C       2.112228   -0.776025   -0.869787
O       2.757872   -1.417136   -1.972740
C       2.047574   -2.413774   -2.583997
C       2.924244   -3.166539   -3.540811
N       0.826318   -2.706150   -2.413915
C       0.009955   -1.898000   -1.516373
H       1.078854    1.719479    0.279078
H      -0.330923    1.911680   -0.795531
H      -0.564898    1.661762    0.954729
H       0.543147    0.134062   -2.032758
H       2.657944    0.155356   -0.702537
H       2.203910   -1.400878    0.028298
H       3.756260   -3.635899   -3.006029
H       2.337728   -3.928252   -4.052303
H       3.359399   -2.479603   -4.273783
H      -0.165984   -2.449240   -0.583188
H      -0.973079   -1.755751   -1.977593
