21

C       0.766537    1.373345    0.123936
C      -0.036115    0.084087   -0.023289
C       0.559960   -0.944415   -1.034440
C       1.111809   -1.755211    0.155365
C       0.193173   -0.962671    1.110817
O       0.974605   -3.201958    0.142870
C       2.339469   -3.349553    0.541503
C       3.259461   -2.811540   -0.507778
C       2.600267   -1.867368    0.480420
H       1.829849    1.168035    0.293138
H       0.690003    1.990629   -0.777921
H       0.405668    1.968784    0.969848
H      -1.087292    0.326624   -0.199863
H      -0.214123   -1.512766   -1.556817
H       1.286465   -0.576345   -1.764928
H       0.634940   -0.606695    2.046412
H      -0.705401   -1.541671    1.338709
H       2.579215   -4.112121    1.272944
H       4.319416   -2.974997   -0.337036
H       2.949080   -2.829954   -1.548937
H       3.152129   -1.216374    1.145265
