15

C      -0.031077    1.521888    0.120799
C      -0.004094    0.038849   -0.011908
C      -0.042265   -0.788251   -1.126053
N      -0.162591   -0.404734   -2.464194
N      -0.020231   -2.100819   -0.765587
C       0.034644   -2.101701    0.559482
N       0.058526   -0.828719    1.053416
C       0.068242   -3.236040    1.404918
N       0.100358   -4.138098    2.131814
H       0.963091    1.953267    0.295614
H      -0.427463    1.961667   -0.798406
H      -0.678326    1.843827    0.944188
H       0.506929    0.298889   -2.747558
H      -0.087388   -1.212768   -3.069380
H       0.100696   -0.575852    2.027539
