13

N       0.022872    1.237668    0.009164
N       1.086080    2.072863    0.003360
N       2.269570    1.548024   -0.011312
C       2.368048    0.204660   -0.019868
C       3.460935   -0.636380   -0.035432
C       2.949756   -1.967817   -0.037899
C       1.555838   -1.991251   -0.024219
C       1.150780   -0.644615   -0.012623
N      -0.039319   -0.084679    0.002311
H      -0.863446    1.721745    0.020667
H       4.500828   -0.347130   -0.044090
H       3.574138   -2.852927   -0.049078
H       0.913610   -2.858289   -0.022740
