20

C      -0.332070    1.386699   -0.048699
C      -0.033431   -0.086402    0.002203
C       0.689975   -0.961493   -1.068447
C       0.322508   -1.951405    0.072485
C       0.820738   -0.857177    1.063336
C      -1.071116   -1.263632    0.083632
N      -1.933373   -1.404397    1.230008
C      -3.291914   -1.448413    1.137539
O      -3.933361   -1.352442    0.113185
H       0.589768    1.977848   -0.074614
H      -0.919861    1.636651   -0.938292
H      -0.907504    1.699169    0.829700
H       0.177139   -1.095861   -2.025055
H       1.755784   -0.764759   -1.205847
H       0.527335   -3.021751    0.109107
H       1.895203   -0.653156    1.055778
H       0.454114   -0.881043    2.093907
H      -1.691483   -1.402015   -0.802270
H      -1.528809   -1.509196    2.146094
H      -3.761963   -1.587953    2.132091
