22

C       1.387268    1.451864   -0.177353
C       0.845210    0.041398   -0.085619
C       1.743320   -1.187638    0.096845
C       3.224599   -1.074346    0.258673
N       3.925928   -2.109265   -0.303591
O       3.806054   -0.154676    0.815270
C       0.753030   -0.750977    1.187810
C       1.258804   -0.176039    2.498192
C      -0.461917   -1.648369    1.355606
H       2.289660    1.582436    0.418322
H       1.638591    1.694026   -1.215744
H       0.630683    2.171489    0.155330
H       0.030411   -0.146816   -0.782613
H       1.432462   -2.063753   -0.466081
H       3.475634   -2.940869   -0.641963
H       4.920152   -2.132201   -0.145582
H       2.194660    0.366939    2.378402
H       0.506065    0.495950    2.927026
H       1.430179   -0.980030    3.223517
H      -0.237103   -2.501342    2.006672
H      -1.289689   -1.093550    1.813120
H      -0.814521   -2.039985    0.396013
