16

O      -0.201940    0.155776    0.556501
C      -0.090895    1.252829    0.060959
C       1.196857    1.970618   -0.042409
C       1.576377    2.905856   -1.205425
C       0.490169    3.465543   -2.115967
C      -0.445786    4.242815   -1.155799
O       0.187890    4.290148    0.130589
C       1.330627    3.492519    0.132830
H      -0.981752    1.778394   -0.342306
H       2.025023    1.394020    0.358698
H       2.573802    2.783547   -1.609689
H       0.955698    4.138233   -2.841909
H      -0.049914    2.700546   -2.680184
H      -0.624488    5.272063   -1.484020
H      -1.419954    3.750177   -1.054463
H       2.099857    3.863407    0.800444
