19

C      -0.031293    1.550258    0.506735
C      -0.033272    0.142475   -0.105935
O       0.928100   -0.704728    0.518968
C      -1.376042   -0.450671   -0.089029
C      -2.474888   -0.945451   -0.052356
C      -3.812786   -1.523443    0.018095
C      -3.784489   -2.996006    0.494660
C      -4.674408   -0.709690    0.988619
O      -5.782518   -0.318277    0.743465
H       0.982977    1.956589    0.478519
H      -0.700837    2.216797   -0.044433
H      -0.368582    1.515314    1.547876
H       0.304563    0.212485   -1.147040
H       0.613230   -0.889216    1.410961
H      -4.303222   -1.469364   -0.960246
H      -3.374588   -3.069463    1.506456
H      -4.795525   -3.412266    0.493655
H      -3.154419   -3.591514   -0.169747
H      -4.187219   -0.524064    1.972528
