18

N      -0.113548    1.422628   -0.174969
C      -0.002201   -0.014269   -0.037378
C       0.844029   -0.799994   -1.083243
C      -0.196604   -1.570294   -1.920915
C      -1.278071   -1.994581   -0.901439
C      -1.306763   -0.850598    0.113748
O      -0.879299   -1.250579    1.473672
C       0.225642   -0.451127    1.415360
O       1.020362   -0.224177    2.272224
H       0.643339    1.868789    0.335324
H      -0.023925    1.705857   -1.145956
H       1.463052   -0.121159   -1.676067
H       1.524167   -1.500333   -0.586479
H      -0.639102   -0.900515   -2.668685
H       0.232975   -2.416046   -2.464309
H      -2.250901   -2.169542   -1.367081
H      -0.988391   -2.915440   -0.385296
H      -2.235219   -0.284376    0.180610
