23

C      -1.497548   -0.235581   -0.388192
C      -0.026994    0.017325   -0.018891
C       0.201115    1.500355    0.314972
O       0.306063   -0.774401    1.131072
C       0.931255   -0.470699   -1.129009
C       0.750672    0.247896   -2.466848
C       2.426731   -0.590389   -0.725271
O       2.464522   -1.978002   -1.111951
C       1.036356   -2.011224   -1.300788
H      -1.820654    0.372451   -1.237425
H      -1.661438   -1.289731   -0.629699
H      -2.144297    0.018992    0.459617
H      -0.413464    1.787805    1.176099
H       1.247796    1.683338    0.574577
H      -0.073908    2.157534   -0.514351
H      -0.270272   -0.502585    1.852527
H       0.936338    1.323325   -2.383842
H       1.461966   -0.153010   -3.195548
H      -0.254318    0.106616   -2.876660
H       3.132791    0.017023   -1.305513
H       2.618953   -0.461634    0.344977
H       0.536397   -2.589806   -0.517051
H       0.761569   -2.406148   -2.287032
