15

C       0.059894    1.402483   -0.154733
C       0.006222   -0.078257   -0.014682
O       0.523177   -0.938658   -1.085423
C       0.061610   -1.890207   -0.097771
C       0.181643   -3.304085   -0.324056
N       0.252852   -4.451120   -0.452629
C       0.495660   -1.016282    1.140145
N      -0.845458   -0.993841    1.792277
C      -1.185081   -1.030990    0.340499
H       1.093878    1.740978   -0.267230
H      -0.510367    1.727030   -1.029850
H      -0.368854    1.865324    0.738705
H       1.445456   -1.026163    1.674388
H      -1.050754   -1.889233    2.240253
H      -2.198517   -1.058047   -0.059304
