13

O      -0.057172   -0.066423    0.003980
C       0.032828    1.127923    0.008985
O      -1.178378    1.870045    0.028750
C      -1.209256    3.201399    0.035906
C      -0.093902    3.981658    0.025100
C       1.172799    3.294677    0.004811
C       1.229471    1.943584   -0.002800
C      -0.182771    5.398548    0.033465
C      -0.234832    6.601302    0.040235
H      -2.218824    3.595369    0.051272
H       2.081735    3.886606   -0.004255
H       2.166867    1.402536   -0.018011
H      -0.288237    7.661869    0.046271
