18

O      -0.054414    1.369753   -0.269847
C       0.043284   -0.031539   -0.044310
C      -1.371127   -0.565429    0.051950
C      -2.258638   -0.522673   -1.233492
C      -2.643133   -2.003996   -1.007433
O      -2.174975   -2.912624   -2.030766
C      -0.946256   -3.300240   -1.605630
N      -0.507863   -2.924362   -0.474953
C      -1.577480   -2.107518    0.124177
H       0.833790    1.714153   -0.399932
H       0.577111   -0.536136   -0.862264
H       0.589476   -0.253760    0.886013
H      -1.875388   -0.073687    0.889627
H      -3.082160    0.193175   -1.226316
H      -1.686494   -0.385567   -2.154337
H      -3.690095   -2.228791   -0.805740
H      -0.415504   -3.941917   -2.300731
H      -1.848962   -2.513066    1.102248
