21

C       0.434768    1.629783    0.056781
C       0.137144    0.137938    0.035075
C       0.968570   -0.770678   -0.948564
O       2.012358   -0.192138   -1.689058
C       1.321121   -1.732986    0.229814
C       2.634139   -1.453811    1.016801
O       3.757817   -0.905192    0.329567
C       1.909070   -0.423895    1.911491
C       0.559726   -0.772074    1.223665
H       1.505818    1.838856    0.127070
H       0.081468    2.100544   -0.865959
H      -0.063585    2.121212    0.899854
H      -0.930681   -0.005604   -0.163769
H       0.315731   -1.259413   -1.678741
H       2.766729   -0.087101   -1.091686
H       1.068702   -2.784247    0.080114
H       2.947958   -2.340619    1.581703
H       4.153676   -1.602542   -0.205433
H       1.957039   -0.649328    2.978947
H       2.258732    0.600225    1.764992
H      -0.234614   -1.122507    1.882696
