15

C      -0.362207    1.467027   -0.482873
N      -0.452886    0.023521   -0.640777
C      -0.630269   -0.674595    0.618669
C      -1.001092   -2.100025    0.374735
N      -1.688111   -2.584133   -0.617908
C      -1.746220   -3.916913   -0.292906
N      -1.148325   -4.248316    0.816928
O      -0.638803   -3.021672    1.271848
H      -0.286182    1.934752   -1.467889
H      -1.217907    1.918671    0.051275
H       0.545942    1.720443    0.076336
H      -1.211162   -0.226844   -1.266032
H       0.297598   -0.644618    1.202505
H      -1.414770   -0.231066    1.266155
H      -2.247855   -4.656333   -0.900087
