20

C       0.030839    1.481664   -0.130851
O      -0.160762    0.088171   -0.199103
C       0.669416   -0.584917   -1.134707
C       2.084940   -0.793861   -0.585029
C      -0.004869   -1.909330   -1.481358
O       0.693301   -2.634077   -2.463206
C      -0.759500   -2.682086   -0.431924
C      -1.494114   -2.001658   -1.574344
H       1.027713    1.754109    0.244951
H      -0.109118    1.958661   -1.113184
H      -0.717521    1.875015    0.561826
H       0.729349    0.006243   -2.063985
H       2.711189   -1.298823   -1.326374
H       2.566463    0.159243   -0.349900
H       2.052737   -1.397599    0.327638
H       1.416042   -3.100784   -2.030598
H      -0.677963   -3.763269   -0.463327
H      -0.850927   -2.246033    0.555592
H      -2.073096   -1.117144   -1.341110
H      -1.884670   -2.631880   -2.364706
