15

C      -0.501813    1.345235    0.129236
C       0.221102    0.020153    0.009449
C       0.939843   -0.310269   -1.316794
C       2.218442   -0.409327   -0.441420
O       1.480849    0.011126    0.733516
C       2.816425   -1.729637   -0.308835
C       3.310381   -2.821239   -0.210476
H       0.122193    2.164570   -0.241291
H      -1.433579    1.325899   -0.447029
H      -0.751822    1.549772    1.174986
H      -0.421713   -0.796709    0.364645
H       0.641377   -1.231295   -1.816154
H       0.961649    0.511002   -2.035586
H       2.998117    0.322122   -0.687743
H       3.750752   -3.783165   -0.117074
