17

C      -0.147367   -1.293571    0.060310
C      -0.118634   -0.090718    0.068045
C      -0.050710    1.367262    0.063333
C      -0.158226    2.016989    1.480334
C       1.380718    2.152095    1.434867
N       1.318465    1.953171   -0.029212
C       2.369116    1.212714   -0.698908
C       3.621568    1.976392   -0.694502
N       4.614888    2.565453   -0.673941
H      -0.188088   -2.355178    0.053484
H      -0.728413    1.763706   -0.701077
H      -0.674012    2.976952    1.446238
H      -0.581052    1.389877    2.262955
H       1.826265    3.102218    1.740201
H       1.886821    1.331061    1.965325
H       2.566256    0.223081   -0.249928
H       2.073229    1.035411   -1.739574
