14

O       0.076335    1.436844   -0.071753
C       0.001276    0.037524   -0.019604
C       0.886069   -0.513438    1.014345
N       1.577678   -0.907185    1.852583
C      -1.373021   -0.659589   -0.048307
C      -2.093792   -0.321877   -1.282954
N      -1.037901   -1.372256   -1.364055
C       0.206487   -0.641348   -1.405735
N       1.083469   -0.667695   -2.295428
H      -0.008778    1.794838    0.820269
H      -1.803609   -1.206887    0.780831
H      -3.090270   -0.731211   -1.406905
H      -1.917376    0.632913   -1.768682
H       1.875594   -0.069449   -2.055221
