18

C       0.494121    0.723613    0.466243
O      -0.571984    0.577661   -0.463206
C      -1.539635   -0.360831   -0.207657
C      -2.606434   -0.387238   -1.300775
O      -3.486751   -1.417822   -0.827223
C      -2.856936   -1.805956    0.368650
C      -1.306210   -1.858513    0.229129
N      -1.129864   -1.413139    1.660983
C      -2.291594   -0.589016    1.160120
H       1.131986    1.514049    0.063499
H       0.131408    1.012093    1.458111
H       1.072432   -0.200267    0.569109
H      -3.139686    0.566375   -1.385854
H      -2.193049   -0.653203   -2.280239
H      -3.392514   -2.601218    0.886200
H      -0.679073   -2.620266   -0.235652
H      -1.482163   -2.145356    2.286551
H      -2.817273    0.134433    1.784518
