19

O      -0.109699    1.492767    0.149709
C       0.042142    0.075926    0.053301
C      -1.374448   -0.500378   -0.045928
O      -2.108721   -0.054338    1.095251
C      -2.081662   -0.135527   -1.345606
C      -2.601146   -1.207522   -1.947703
C      -2.264095   -2.468596   -1.226051
C      -0.782163   -2.793172   -1.179117
C      -1.420384   -2.027493   -0.047630
H       0.728240    1.875995    0.422217
H       0.639963   -0.198744   -0.825400
H       0.528034   -0.328612    0.952376
H      -1.881385    0.879310    1.197100
H      -2.127990    0.887003   -1.700141
H      -3.165123   -1.196403   -2.874086
H      -2.983822   -3.276169   -1.156759
H      -0.495422   -3.818759   -0.967804
H      -0.133948   -2.279711   -1.881206
H      -1.510863   -2.501561    0.921750
