18

C      -0.042613    1.450490    0.037120
C      -0.041807   -0.044916    0.049275
C       0.412195   -1.051119   -1.005018
C       1.152070   -0.957197    0.300648
N       0.548458   -2.195606    0.897184
C      -0.506892   -1.676084    1.841365
C      -1.139617   -0.987143    0.612372
O      -2.429466   -0.493599    0.515961
C      -0.452708   -2.097739   -0.272675
H       0.847537    1.836767   -0.471084
H      -0.923095    1.840025   -0.484448
H      -0.048573    1.859448    1.054251
H       0.744706   -0.930651   -2.026770
H       2.157998   -0.624562    0.525889
H      -1.098801   -2.516561    2.221715
H      -0.137895   -1.067625    2.672864
H      -3.042896   -1.171943    0.817713
H      -0.906438   -3.011400   -0.653772
