15

C       0.053270    1.426873    0.142387
C       0.001482   -0.052384   -0.004612
N       0.032198   -0.719939   -1.094914
C       0.034678   -2.112175   -0.721966
C       1.225920   -2.555879    0.109564
O       2.366103   -1.768678    0.210156
C      -0.033993   -2.118452    0.808679
O      -0.096790   -0.752486    1.162038
H       0.981583    1.724919    0.640105
H       0.004532    1.893437   -0.841022
H      -0.777697    1.776284    0.762329
H      -0.464704   -2.805664   -1.388184
H       1.402659   -3.630661    0.122782
H       2.550037   -1.401954   -0.662327
H      -0.616533   -2.758847    1.457924
