13

C      -0.026824    1.496119    0.010729
C       0.002283   -0.005584   -0.014645
N      -0.034659   -0.615693   -1.163627
C      -0.007462   -2.009567   -1.187445
O      -0.036907   -2.688524   -2.186252
N       0.059099   -2.625311    0.079701
N       0.097747   -2.025830    1.263483
C       0.070260   -0.726077    1.231867
H       0.868321    1.889115    0.506060
H      -0.078624    1.884200   -1.006282
H      -0.890866    1.853756    0.582217
H       0.080047   -3.636520    0.095574
H       0.100949   -0.215728    2.187305
