19

C      -0.027073    1.573520    0.048143
C       0.000480    0.043458    0.010834
C       0.698914   -0.502315   -1.239096
C       0.732833   -2.042471   -1.318000
C       1.338201   -2.546960   -2.651535
O       1.327707   -3.950123   -2.764006
C       1.491945   -2.628166   -0.208561
N       2.126025   -3.113390    0.628342
H       0.986983    1.987906    0.046593
H      -0.554220    1.983648   -0.820410
H      -0.533180    1.937111    0.947172
H       0.507401   -0.338737    0.904890
H      -1.025348   -0.345522    0.049556
H       0.185503   -0.138173   -2.137857
H       1.725504   -0.118668   -1.288232
H      -0.289979   -2.434656   -1.252991
H       0.722043   -2.165514   -3.471386
H       2.349488   -2.128801   -2.768056
H       1.927698   -4.309810   -2.100414
