18

C      -0.026847    1.520494    0.014242
C      -0.047796    0.022893    0.051441
C      -1.305897   -0.857982   -0.028737
C      -0.496959   -2.014124    0.668403
C       0.612278   -0.970220    0.959683
N       1.163393   -0.705426   -0.375053
C       1.004101   -1.889961   -1.223314
C       0.076210   -2.857059   -0.459171
O      -0.145758   -4.007878   -0.724345
H       0.969801    1.894102    0.261890
H      -0.285984    1.889247   -0.985257
H      -0.747872    1.940576    0.723581
H      -2.087628   -0.484691    0.636818
H      -1.744259   -1.059296   -1.012684
H      -0.985537   -2.568485    1.464938
H       1.226525   -0.862003    1.845938
H       0.589627   -1.646117   -2.207126
H       1.980903   -2.357427   -1.383853
