17

C       0.070455    1.484018   -0.067319
C      -0.063168    0.004957   -0.066772
C      -1.125915   -0.845378    0.020364
O      -2.459655   -0.581290    0.139781
C      -0.617507   -2.185802   -0.034520
C      -1.415657   -3.445451    0.026228
O      -0.523488   -4.545832   -0.060776
C       0.727924   -2.049252   -0.151953
O       1.085198   -0.738240   -0.173508
H       0.683152    1.841314    0.768998
H       0.527534    1.854768   -0.992578
H      -0.913470    1.956242    0.023247
H      -2.593495    0.371535    0.158383
H      -1.996686   -3.472106    0.963112
H      -2.151619   -3.458714   -0.794893
H      -1.043248   -5.353168   -0.021035
H       1.526017   -2.766628   -0.227657
