15

C      -0.466940   -1.125212   -0.572773
C      -0.260622    0.013786   -0.249066
C       0.002506    1.374861    0.156684
C       0.155287    1.711862    1.673478
C       1.290523    2.702036    1.315139
C       1.436069    2.004695   -0.079008
C       2.520671    1.038315   -0.135782
N       3.395218    0.282797   -0.169391
H      -0.641514   -2.132476   -0.860623
H      -0.726466    2.052073   -0.300197
H      -0.728182    2.105817    2.177696
H       0.528798    0.847333    2.225742
H       0.932359    3.726663    1.193343
H       2.176816    2.705671    1.949061
H       1.507707    2.665299   -0.945870
