25

C      -0.264837    1.553199   -0.025748
C       0.012583    0.050459   -0.004849
C       0.760384   -0.495848   -1.269677
C       1.932100   -1.310868   -0.674475
C       1.293048   -1.866792    0.617817
C       0.899836   -0.474772    1.155870
C       2.273969    0.232624    1.166265
C       2.983688   -0.311636   -0.119431
C       4.348348   -0.943994    0.163930
H       0.648603    2.137000   -0.179325
H      -0.952047    1.808529   -0.839782
H      -0.723315    1.889132    0.911319
H      -0.954108   -0.461545    0.077063
H       0.103433   -1.127165   -1.876175
H       1.117096    0.313304   -1.916586
H       2.353775   -2.046918   -1.363411
H       0.433201   -2.517606    0.428551
H       1.997164   -2.399567    1.263930
H       0.392837   -0.456275    2.124056
H       2.200098    1.322938    1.181339
H       2.833929   -0.057188    2.062801
H       3.131136    0.498579   -0.843061
H       4.262351   -1.797100    0.846198
H       4.821265   -1.300834   -0.757705
H       5.026592   -0.219967    0.629028
