17

O       0.258749    0.976571   -0.804315
C       0.004658    0.150981    0.324829
C      -1.340075   -0.422565    0.340706
C      -2.464613   -0.854403    0.344712
C      -3.813135   -1.402436    0.330570
C      -3.848918   -2.901832   -0.077627
O      -3.070532   -3.709765    0.789245
C      -5.236111   -3.368366   -0.164671
C      -6.380306   -3.736671   -0.184328
H      -0.458287    1.616828   -0.858179
H       0.752631   -0.648555    0.282501
H       0.178649    0.696776    1.266285
H      -4.282353   -1.302295    1.318009
H      -4.444609   -0.838860   -0.367168
H      -3.369262   -2.996441   -1.058018
H      -3.547222   -3.790792    1.623157
H      -7.385981   -4.076764   -0.222834
