13

N       0.055848    1.420663    0.034364
C       0.003556    0.038854    0.036159
C      -1.118576   -0.695370    0.092885
F      -2.342057   -0.199433    0.091518
O      -1.143798   -2.049901    0.159335
C       0.064279   -2.662971    0.167421
N       1.201679   -2.101511    0.101956
C       1.274106   -0.698792    0.010610
N       2.366821   -0.044311   -0.100335
H       0.959834    1.747652   -0.284756
H      -0.730612    1.893870   -0.384442
H      -0.055981   -3.738539    0.235939
H       3.156878   -0.689429   -0.111472
