16

O       0.129034    1.406559   -0.017386
C       0.045562   -0.002987   -0.054660
C       0.485428   -0.647352    1.312701
N      -0.725171   -0.556408    2.206886
C      -1.666797   -0.548713    1.364824
O      -2.952771   -0.083386    1.327346
C      -2.738113    0.268669   -0.113081
C      -1.406407   -0.539818   -0.107769
O      -1.406647   -1.752651   -0.821335
H      -0.109030    1.699999    0.869997
H       0.632678   -0.339951   -0.911474
H       0.817903   -1.683465    1.190932
H       1.301883   -0.076346    1.762882
H      -3.534647   -0.140598   -0.736337
H      -2.647977    1.350697   -0.217942
H      -2.122611   -2.311559   -0.498550
