16

C       0.197435    1.612303    0.283089
C      -0.017457    0.142672   -0.071433
N       0.611640   -0.240070   -1.325981
C      -0.101503   -0.732430   -2.386257
O      -1.299123   -0.946043   -2.357482
C       0.715571   -0.982486   -3.565109
C       1.367502   -1.196645   -4.552091
C       0.446775   -0.806245    1.033709
O       0.733012   -0.463115    2.149780
H       1.264060    1.844113    0.368103
H      -0.242583    2.257379   -0.480632
H      -0.261415    1.832383    1.249044
H      -1.085842   -0.064896   -0.221916
H       1.593877   -0.053775   -1.459125
H       1.931018   -1.390899   -5.432280
H       0.501733   -1.870184    0.711369
