12

C       0.032907   -1.192419   -0.003724
C      -0.022861    0.009477    0.003331
C      -0.040381    1.436410    0.011020
N      -1.226639    2.067597    0.030155
C      -1.185166    3.397583    0.036520
C       0.014405    4.107255    0.024175
N       1.197171    3.488328    0.005140
C       1.165123    2.159249   -0.001345
H       0.066630   -2.254169   -0.009760
H      -2.139662    3.917640    0.051992
H       0.022561    5.193768    0.029717
H       2.115827    1.634031   -0.016799
