19

C      -0.106848    1.548496   -0.012203
C       0.019220    0.017879    0.000779
C       0.799168   -0.538797   -1.191860
N       2.198747   -0.062823   -1.269757
C       1.891522   -1.399569   -0.672722
C       1.784731   -1.348025    0.812291
C       0.785683   -0.546377    1.199450
C       0.415131   -0.189831    2.604046
H       0.885280    2.004370   -0.062450
H      -0.681218    1.881385   -0.883034
H      -0.619461    1.917221    0.881747
H      -0.994986   -0.410847   -0.004547
H       0.276024   -0.760874   -2.116259
H       2.522992   -0.202752   -2.225931
H       2.240100   -2.288319   -1.188098
H       2.463890   -1.866772    1.479556
H       1.018574   -0.743006    3.328830
H       0.556521    0.880719    2.797647
H      -0.642994   -0.404686    2.803468
