18

C       0.350026    1.635598   -0.391637
C       0.195226    0.205331   -0.169480
C       0.069751   -0.979195    0.009578
C      -0.094589   -2.398881    0.235084
C      -0.020080   -2.906628    1.719941
N      -1.333137   -3.521509    1.524338
C      -1.552603   -2.979659    0.185844
C      -2.193324   -4.155822    2.349774
O      -3.321310   -4.485784    2.044258
H       1.060782    1.837947   -1.200277
H      -0.603949    2.100336   -0.663712
H       0.718937    2.139537    0.508438
H       0.578921   -2.971612   -0.407809
H       0.790126   -3.610917    1.933879
H      -0.008829   -2.099426    2.459497
H      -2.339793   -2.221033    0.145922
H      -1.738645   -3.736136   -0.581495
H      -1.742598   -4.354302    3.344662
