15

C      -0.056226    1.414556    0.210992
N      -0.019761   -0.036524    0.024284
C      -1.239640   -0.688991   -0.026489
N      -2.338629   -0.052990    0.084152
N      -1.105514   -2.072630   -0.206842
C       0.110830   -2.671208   -0.316744
N       1.240279   -2.069105   -0.270867
C       1.238377   -0.676936   -0.093008
O       2.262654   -0.040267   -0.040435
H       0.973754    1.760704    0.232569
H      -0.607208    1.881963   -0.608375
H      -0.569117    1.656740    1.144521
H      -3.144255   -0.671612    0.026940
H      -1.948538   -2.622286   -0.254452
H       0.079907   -3.751316   -0.453895
