17

C      -0.038632    1.499649    0.205130
N       1.458822    1.498221   -0.031889
C       1.249995    0.316128   -0.860270
C       0.034665   -0.043009   -0.067380
O      -0.690483   -0.896350   -0.953616
C       0.288309   -1.058796   -1.979499
C       0.827656    0.313889   -2.390024
N       2.189351   -0.220765   -2.752482
C       1.840724   -0.960777   -1.493925
H      -0.330901    1.824753    1.205756
H      -0.608402    2.042731   -0.557660
H       1.827383    2.308621   -0.519617
H       0.235271   -0.572534    0.868660
H      -0.000437   -1.814510   -2.710098
H       0.326055    1.094274   -2.963842
H       2.103106   -0.845812   -3.560872
H       2.482119   -1.727400   -1.058186
