14

C      -0.028998    1.458401    0.014774
N       0.011484    0.003705    0.026986
C       0.807460   -0.511039    1.134046
C      -1.333509   -0.551229    0.005511
C      -1.332039   -2.001334   -0.224879
N      -1.345046   -3.143671   -0.394842
H       0.991936    1.846814   -0.034095
H      -0.569026    1.810477   -0.869767
H      -0.514998    1.889838    0.910752
H       0.400661   -0.230323    2.124144
H       0.859462   -1.601606    1.080788
H       1.824718   -0.117179    1.059777
H      -1.901354   -0.357954    0.937995
H      -1.897405   -0.082044   -0.808639
