23

C       0.683622    1.022188   -0.354307
C       0.068935   -0.282436    0.124128
O      -1.290001   -0.310593   -0.271099
C      -1.958018   -1.488405    0.087856
C      -2.409021   -1.675931    1.568629
C      -3.781429   -2.153714    1.043266
C      -3.439271   -1.521161   -0.339992
O      -3.807014   -3.565861    1.035976
C      -5.007490   -4.098737    0.527072
H       1.737751    1.076806   -0.066237
H       0.615440    1.101107   -1.443067
H       0.159337    1.876527    0.083422
H       0.605117   -1.144836   -0.307075
H       0.152158   -0.367894    1.219847
H      -1.406434   -2.370193   -0.269933
H      -1.872321   -2.389049    2.196894
H      -2.483480   -0.709176    2.073910
H      -4.675909   -1.764136    1.549372
H      -3.826981   -0.502443   -0.426006
H      -3.702574   -2.087714   -1.235644
H      -4.929762   -5.187329    0.583734
H      -5.877621   -3.772847    1.118994
H      -5.181530   -3.812407   -0.521091
