14

C      -0.016255    1.481492    0.100192
N      -0.044900    0.024443   -0.050172
C       0.678753   -0.504936   -1.205646
C       0.671395   -1.973689   -1.160433
C       0.675347   -3.170635   -1.099195
C      -0.000110   -0.045702   -2.447435
N      -0.530206    0.316743   -3.406007
C       2.103097   -0.039323   -1.263996
N       3.188515    0.353640   -1.220460
H       0.996145    1.902846    0.180994
H      -0.520136    1.943325   -0.753452
H      -0.578266    1.735806    1.001028
H       0.308491   -0.440499    0.779236
H       0.676019   -4.232875   -1.053686
