20

C       0.401505    1.203696    0.626263
C      -0.174448   -0.080958    0.029439
O      -1.558205    0.100386   -0.334903
C      -2.475724    0.026209    0.719849
C      -2.594708   -1.336781    1.282526
N      -2.669312   -2.405210    1.716380
C       0.546467   -0.509011   -1.223122
C       1.769433   -1.386363   -1.116576
C       0.483046   -1.944122   -1.670875
H       1.454424    1.057227    0.883716
H       0.331093    2.021159   -0.097740
H      -0.123446    1.506166    1.537682
H      -0.108208   -0.896291    0.765762
H      -2.240644    0.713753    1.545908
H      -3.449885    0.320866    0.317085
H       0.554572    0.247712   -2.003156
H       2.592487   -1.200130   -1.797166
H       2.078747   -1.712122   -0.128529
H      -0.077436   -2.638338   -1.053650
H       0.423003   -2.145446   -2.734260
