17

O       0.102410    1.468697   -0.242829
C      -0.025259    0.081692   -0.147515
C      -1.392312   -0.620340   -0.136991
C      -0.821501   -1.797335   -0.885800
C      -1.797639   -0.875339   -1.596440
C      -0.674603   -0.335922   -2.434402
C      -0.529928   -0.246665   -3.880372
O      -0.632092    0.942734   -3.069767
C       0.320124   -0.818387   -1.374196
H      -0.238247    1.748685   -1.101290
H       0.549817   -0.229443    0.729387
H      -2.135526   -0.629794    0.649828
H      -0.848054   -2.860265   -0.707968
H      -2.823275   -1.068164   -1.879714
H       0.442080   -0.411579   -4.343596
H      -1.387084   -0.433372   -4.526070
H       1.347286   -1.067177   -1.629287
