23

C      -0.085744    1.527036    0.016633
C       0.020171    0.013405    0.020080
C      -1.202621   -0.639228   -0.607972
C       1.353264   -0.704845   -0.239540
C       2.619519    0.063968   -0.109056
C       2.791318    0.530497    1.130627
C       1.663822    0.111381    2.048004
C       0.720993   -0.720704    1.153980
C       0.141947   -1.959515    1.803651
H       0.836162    2.017535    0.331590
H      -0.326092    1.890544   -0.989343
H      -0.892053    1.856776    0.683364
H      -1.380756   -0.218187   -1.604231
H      -1.093200   -1.719629   -0.727585
H      -2.104556   -0.459122   -0.010323
H       1.318926   -1.574606   -0.889791
H       3.293020    0.233854   -0.942064
H       3.612097    1.157609    1.461046
H       2.031991   -0.492353    2.889206
H       1.158768    0.976189    2.499514
H      -0.503298   -1.694137    2.650473
H      -0.453227   -2.563502    1.116157
H       0.943447   -2.598267    2.192846
