19

C      -0.826282    1.256813   -0.007451
C      -0.040867   -0.044027    0.056134
C       1.121266   -0.280932   -0.964140
C       2.100424   -0.625340    0.204575
N       2.765373   -1.889478    0.116853
C       0.961488   -0.241167    1.210937
O       1.692201    0.986045    1.538940
C       2.773370    0.620958    0.754443
N       3.906675    1.142957    0.627117
H      -0.159169    2.118936    0.076763
H      -1.370600    1.335401   -0.954357
H      -1.557691    1.317838    0.805619
H      -0.722923   -0.900696    0.038145
H       0.958332   -1.135398   -1.624288
H       1.415780    0.583667   -1.562872
H       3.202525   -1.987626   -0.794623
H       3.511459   -1.952741    0.803544
H       0.690645   -0.789799    2.112840
H       4.001586    1.982734    1.201257
