15

N       0.072156    1.447965    0.150709
C       0.013907    0.046610    0.043489
C      -1.140772   -0.673313    0.013462
N      -1.126308   -2.043553   -0.018067
C       0.021138   -2.848945   -0.023827
O      -0.074007   -4.068540   -0.053317
C       1.241319   -2.073589    0.003122
C       1.236430   -0.709603    0.034009
O       2.364317    0.048284    0.046259
H       0.944903    1.816961   -0.202303
H      -0.709417    1.916792   -0.287037
H      -2.116801   -0.203890    0.018322
H      -1.995699   -2.555734   -0.040622
H       2.169979   -2.633694   -0.008315
H       3.135657   -0.528686    0.022901
