16

C       0.095160    1.526556   -0.057816
C       0.001500   -0.007432    0.031301
C       0.610328   -0.594002   -1.239298
O      -0.034581   -0.965629   -2.180076
C       0.744872   -0.552809    1.293676
C      -0.007469   -0.105107    2.557607
O       0.248453    0.911499    3.140156
C       0.849367   -2.011806    1.271696
N       0.908241   -3.165933    1.275773
H       1.131452    1.846816   -0.213115
H      -0.503043    1.884069   -0.899329
H      -0.264828    2.002517    0.856661
H      -1.045994   -0.323918    0.059323
H       1.725122   -0.606804   -1.252388
H       1.748889   -0.116199    1.336078
H      -0.833580   -0.778422    2.866649
