23

C      -0.149636    1.509670   -0.040763
C       0.026930    0.006943    0.010448
C       1.315408   -0.718731   -0.293135
C       2.647077    0.030426   -0.168004
C       2.917144    0.236337    1.346726
C       2.724599    1.636740    2.004061
C       1.497066    1.101879    2.799420
C       1.669904   -0.297923    2.123575
C       0.686406   -0.832926    1.091473
H       0.739153    2.062176    0.263692
H      -0.385776    1.818825   -1.065744
H      -0.978834    1.834992    0.597097
H      -0.843279   -0.503563   -0.399796
H       1.278574   -1.547700   -0.992780
H       3.440515   -0.570807   -0.622422
H       2.640373    0.985091   -0.708428
H       3.862832   -0.231043    1.632685
H       3.562179    1.951645    2.631599
H       2.516854    2.452375    1.305613
H       1.646954    1.084916    3.881856
H       0.548633    1.603104    2.601101
H       1.885442   -1.090611    2.845014
H       0.148759   -1.735727    1.364319
