14

C      -0.052458    1.505973    0.097528
N       0.156839    0.073987   -0.040998
C       0.664761   -0.678168    0.965981
C       0.695368   -2.053214    1.104686
O       1.375166   -2.325738    2.286775
C       1.690292   -1.122079    2.766217
N       1.307089   -0.109209    2.051435
C       0.195275   -3.092866    0.318040
N      -0.247687   -3.911100   -0.378177
H       0.834160    1.960150    0.541749
H      -0.207811    1.934353   -0.894851
H      -0.917157    1.751859    0.728808
H      -0.427235   -0.413841   -0.701557
H       2.230720   -1.095605    3.700181
