23

C      -0.060712    1.461931    0.040509
C       0.070019   -0.046409   -0.003090
C       0.739057   -0.646071   -1.226191
C       1.451248   -0.635150    0.116367
O       2.562945    0.117483    0.465696
C       1.390277   -2.164508    0.200686
C       0.701747   -2.190183   -1.218891
C      -0.671346   -2.855478   -1.301474
C       1.642885   -2.760741   -2.281880
H       0.815840    1.946541   -0.397672
H      -0.946985    1.795782   -0.509343
H      -0.157266    1.822751    1.071268
H      -0.763258   -0.580880    0.453240
H       0.925034   -0.037723   -2.105510
H       2.488273    0.354255    1.397149
H       2.380340   -2.626722    0.187440
H       0.813159   -2.578445    1.035316
H      -1.367779   -2.459506   -0.556398
H      -1.120227   -2.703194   -2.289793
H      -0.590786   -3.936299   -1.137333
H       1.784495   -3.838632   -2.142250
H       1.237686   -2.603230   -3.288544
H       2.625789   -2.280512   -2.238165
