15

C      -0.000814    1.388802   -0.078478
N       0.048953   -0.049042    0.013240
N       0.081946   -0.815174   -1.126223
C       0.119498   -2.065683   -0.684676
N       0.242404   -3.131365   -1.577522
C       0.094569   -2.142476    0.731400
C       0.047831   -0.817695    1.119946
O       0.006925   -0.219238    2.333063
H       0.869306    1.763272   -0.625980
H      -0.907574    1.709577   -0.601177
H       0.000202    1.803025    0.930134
H       0.033714   -2.838250   -2.523982
H      -0.323675   -3.930213   -1.324279
H       0.131342   -3.015370    1.362445
H       0.044488   -0.900986    3.010389
