17

N       0.040020   -1.125876    0.394622
C       0.013010    0.015244    0.214749
C       0.000715    1.458288   -0.015053
C       1.415127    2.069882   -0.028949
C       1.383035    3.581137   -0.289059
C       2.767161    4.183512   -0.281435
C       3.044130    5.514888    0.269716
O       3.383160    4.334451    1.000324
H      -0.507348    1.652259   -0.967327
H      -0.608276    1.928960    0.765789
H       1.905277    1.876907    0.930332
H       2.014840    1.568549   -0.796916
H       0.909413    3.785517   -1.258971
H       0.776196    4.078453    0.477092
H       3.444050    3.804534   -1.050322
H       3.887628    6.093232   -0.104303
H       2.226963    6.103003    0.685918
