20

C      -0.065819    1.568732   -0.077929
C       0.039504    0.053390   -0.011410
C       1.079978   -0.644860   -0.910454
N       2.421007   -0.177477   -0.478085
C       1.742364   -1.275588    0.263518
C       0.762414   -0.606887    1.199593
C       0.989455   -0.048642    2.578806
C       0.063791   -1.226331    2.360915
O      -1.322374   -1.042958    2.412804
H       0.923336    2.025410    0.008488
H      -0.512599    1.887137   -1.026531
H      -0.699568    1.950792    0.729382
H      -0.943145   -0.412094   -0.133823
H       0.925796   -1.034866   -1.909280
H       3.099068   -0.616923   -1.101223
H       2.204751   -2.250159    0.367493
H       1.945646   -0.217489    3.063907
H       0.522425    0.905403    2.803731
H       0.407781   -2.206454    2.696344
H      -1.571950   -0.914888    3.333872
