19

C      -0.010336    1.662832    0.048712
C       0.054116    0.154761   -0.083536
C       0.613475   -0.615015   -1.235657
C       1.302674   -0.708347    0.119865
C       2.640148   -0.054915   -0.010746
O       3.531333   -0.093343    0.801178
C       2.734873    0.613631   -1.393408
C       1.547080    0.080864   -2.225459
O       1.947606   -0.928986   -3.145351
H       0.831608    2.179678   -0.414961
H      -0.924851    2.041725   -0.420661
H      -0.034036    1.953794    1.103807
H      -0.816540   -0.327783    0.355241
H       0.053842   -1.449941   -1.640807
H       1.232773   -1.564133    0.779586
H       2.736975    1.702636   -1.279521
H       3.689209    0.339530   -1.852119
H       1.028704    0.891336   -2.758788
H       2.520329   -0.521726   -3.802907
