16

C       0.013446   -1.217304   -0.188399
C       0.029195   -0.021119   -0.063455
C       0.058856    1.414845    0.054313
C      -0.547023    2.291436   -1.076008
C       0.706922    3.217673   -1.023824
C       1.346402    2.316450    0.065808
C       0.922059    2.650748    1.500315
O      -0.312379    1.905094    1.369708
H      -0.004775   -2.274536   -0.288541
H      -0.656115    1.756133   -2.021583
H      -1.503957    2.737351   -0.798670
H       1.270217    3.235748   -1.958740
H       0.525753    4.250022   -0.713322
H       2.352379    1.936066   -0.101203
H       1.563357    2.218602    2.278933
H       0.744742    3.709432    1.726443
