18

C      -0.051603    1.377696    0.103731
O      -0.002376   -0.029668   -0.016196
C       0.614537   -0.559724   -1.109719
C       1.208993    0.195041   -2.124147
C       1.809911   -0.479927   -3.187793
C       1.827579   -1.863694   -3.256736
C       1.227628   -2.619604   -2.235328
N       1.182570   -4.013077   -2.320130
C       0.626695   -1.955049   -1.165999
H       0.953137    1.816795    0.156584
H      -0.596014    1.838000   -0.730955
H      -0.582168    1.585436    1.034763
H       1.211633    1.275843   -2.097545
H       2.276870    0.096740   -3.980178
H       2.296307   -2.368207   -4.095653
H       1.923627   -4.423641   -2.869323
H       1.076591   -4.486408   -1.434573
H       0.153219   -2.507245   -0.360984
