20

O       0.356953    0.944912    1.040011
C       0.112265    0.049248   -0.034092
C      -1.289024   -0.522569   -0.026999
C      -1.630441   -1.952644   -0.283243
C      -0.601375   -3.078308   -0.100318
C      -0.417752   -3.222788    1.418262
C       0.323225   -2.151429    2.181847
C      -1.188081   -2.086768    2.047964
N      -1.927931   -1.348535    1.029056
H       0.036694    0.523223    1.844140
H       0.220350    0.643518   -0.948317
H       0.876657   -0.736547   -0.085902
H      -2.013397    0.204768   -0.393074
H      -2.486091   -2.174268   -0.918547
H      -1.007258   -4.006119   -0.512992
H       0.340941   -2.888550   -0.624876
H      -0.439153   -4.223124    1.836162
H       0.681395   -2.431095    3.168347
H       0.977819   -1.459384    1.675130
H      -1.770027   -2.228093    2.952092
