18

O      -0.763991    0.539519   -1.125728
C      -0.284596    1.267316   -0.319067
C      -0.303499    2.754497    0.035153
C       0.657213    2.329837    1.157789
C       0.169798    2.461296    2.589335
N       0.156628    3.866709    2.969272
C       0.128995    4.148381    4.400523
C       1.368397    4.378498    3.609793
O       0.581422    0.935454    0.698345
H       0.104254    3.403954   -0.740625
H      -1.271852    3.137212    0.361149
H       1.681445    2.696459    1.048777
H      -0.852268    2.069602    2.656768
H       0.803585    1.840645    3.247414
H      -0.496012    4.983137    4.703331
H       0.126511    3.302547    5.085938
H       2.193895    3.686011    3.767966
H       1.663986    5.384004    3.325951
