15

C       0.007375    1.503519    0.090015
O       1.334568    2.028299   -0.156175
C       2.276376    1.252777   -0.744271
N       2.272011   -0.002340   -0.958476
C       1.130279   -0.663276   -0.498969
C       0.875790   -2.015950   -0.450901
N      -0.362962   -2.169211    0.121987
C      -0.901662   -0.942299    0.439304
C       0.009038    0.010853    0.061408
H      -0.300098    1.915510    1.057183
H      -0.653031    1.935133   -0.676240
H       3.133397    1.863253   -1.017063
H       1.472042   -2.859391   -0.756588
H      -0.813095   -3.051510    0.287341
H      -1.878092   -0.865764    0.890694
