13

C      -0.016157    1.457969   -0.090596
C      -0.097683   -0.040630    0.062644
O      -0.242094   -0.641206    1.096839
O       0.014678   -0.648403   -1.140845
C      -0.051921   -2.088252   -1.095073
C       0.081192   -2.605712   -2.445853
C       0.188250   -3.066914   -3.549029
H       0.936189    1.735609   -0.550778
H      -0.811868    1.810106   -0.752900
H      -0.109254    1.927146    0.887898
H       0.743649   -2.466497   -0.444028
H      -1.003066   -2.392085   -0.644665
H       0.283190   -3.472668   -4.525958
