15

C      -0.031769    1.582169   -0.073637
C      -0.012092    0.052561   -0.035982
C      -1.308670   -0.535477    0.247911
C      -2.378847   -1.035670    0.473051
C       0.723089   -0.674022   -1.198572
O       2.056045   -0.194719   -1.198508
C       1.735601   -1.296589   -0.314887
C       1.089954   -0.633511    0.894775
O       1.244509   -0.682393    2.073264
H       0.949062    1.959883   -0.369926
H      -0.785216    1.942537   -0.779802
H      -0.277041    1.973756    0.917057
H      -3.325685   -1.470005    0.680652
H       0.300388   -1.056089   -2.119328
H       2.320712   -2.203108   -0.409261
