18

O      -0.067556   -0.008336   -0.345991
C      -0.021015    1.194871   -0.164450
N      -1.098750    2.030282   -0.007511
C      -0.726930    3.411145    0.190125
C       0.775101    3.337113    0.136837
C       1.192578    2.079810   -0.064840
C       2.571643    1.584332   -0.178503
C       2.978516    0.221230    0.361309
C       2.936940    0.445208   -1.118707
H      -2.042855    1.685819   -0.035102
H      -1.133222    4.066335   -0.594769
H      -1.084223    3.802804    1.154145
H       1.397567    4.215266    0.252110
H       3.319991    2.365428   -0.081314
H       3.940486    0.160077    0.858099
H       2.195198   -0.395587    0.782493
H       2.126565   -0.025969   -1.659751
H       3.869641    0.541658   -1.663401
