19

C       0.246867    1.347817    0.420005
C       0.034533   -0.030522   -0.165623
O       0.937604   -0.595937   -0.770731
C      -1.281512   -0.696972    0.033625
C      -2.373084    0.012737    0.793833
O      -2.873048    1.080531   -0.008217
C      -1.720600   -1.638273   -1.103359
C      -1.209514   -2.252427    0.143569
O      -0.004214   -2.910538    0.219694
H       1.202521    1.742401    0.074481
H      -0.577618    2.010001    0.143674
H       0.262901    1.287007    1.515280
H      -3.173865   -0.706294    1.023614
H      -1.992032    0.388781    1.755318
H      -3.552354    1.541256    0.494456
H      -2.783189   -1.657272   -1.318943
H      -1.066489   -1.656770   -1.968063
H      -1.927123   -2.685698    0.834034
H       0.631601   -2.386809   -0.300909
