17

O       0.007601   -0.060400    0.351811
C      -0.006376    1.135144    0.116369
N      -1.179588    1.824163   -0.108786
C      -1.261212    3.276002   -0.035884
C      -0.064118    3.903804   -0.726262
C      -0.237539    4.580290   -2.049048
N      -0.003560    5.371904   -0.834341
C       1.211602    3.219464   -0.412316
C       1.231549    1.947107   -0.004905
H      -2.009344    1.290497    0.106609
H      -2.191747    3.604610   -0.510188
H      -1.283331    3.622939    1.011491
H       0.578988    4.587797   -2.765207
H      -1.230667    4.563512   -2.491039
H      -0.875840    5.781269   -0.505494
H       2.122025    3.795741   -0.550298
H       2.150653    1.416038    0.211443
