18

C      -0.056270    1.613241   -0.006022
C      -0.079076    0.093629    0.121565
O       0.524236   -0.284411    1.353786
C      -1.474563   -0.460358    0.077942
O      -2.428380   -0.138444   -0.975234
C      -3.175347   -1.039626   -0.102675
C      -1.945561   -1.944783    0.218591
N      -2.036567   -1.812794    1.710814
C      -2.544958   -0.487957    1.217378
H       0.975113    1.969268    0.061240
H      -0.478911    1.926405   -0.964765
H      -0.631930    2.072903    0.802834
H       0.485561   -0.341955   -0.719660
H       0.000172   -0.993370    1.754863
H      -4.205116   -1.285105   -0.364693
H      -1.578755   -2.834371   -0.293691
H      -2.795191   -2.384137    2.088498
H      -2.881019    0.316109    1.871303
