18

C      -0.429459    1.765749   -0.605353
O      -0.927342    0.497666   -0.988213
C      -1.153931   -0.380305    0.077490
C      -1.339684   -1.817591   -0.284189
C      -0.100604   -1.378662    0.473235
C       1.016570    1.755965   -0.169878
C       1.551189    2.807347    0.704619
O       1.285023    1.500321    1.211194
H      -0.532471    2.399763   -1.493672
H      -1.038856    2.201320    0.202199
H      -1.776417    0.041301    0.867123
H      -2.102638   -2.388786    0.232533
H      -1.214637   -2.069020   -1.331402
H       0.831315   -1.356375   -0.079232
H      -0.000346   -1.636592    1.521466
H       1.700696    1.258149   -0.858488
H       2.602271    3.083317    0.635985
H       0.889660    3.593190    1.068572
