21

C       0.183091    1.629455    0.013343
C       0.180389    0.113736   -0.052065
O       1.089054   -0.318551   -1.070071
C       1.349271   -1.691900   -0.828883
C       1.446364   -1.843015    0.695331
C       1.126851   -3.228788    1.226057
C       2.663143   -1.113505    1.316328
O       1.841243   -0.027335    1.791141
C       0.654631   -0.607534    1.215002
H       1.160479    1.984368    0.346099
H      -0.036336    2.050289   -0.971262
H      -0.576651    1.982172    0.717671
H      -0.833386   -0.259685   -0.287621
H       0.530692   -2.321719   -1.218375
H       2.270063   -1.959574   -1.356309
H       1.850908   -3.967348    0.862011
H       1.153245   -3.251487    2.319885
H       0.131765   -3.556341    0.905767
H       3.153394   -1.641730    2.143908
H       3.422418   -0.770897    0.602691
H      -0.135982   -0.749823    1.960014
