10

F       0.007358    0.017938    0.003694
C      -0.024888    1.343682    0.010760
C      -1.209395    2.053684    0.029782
N      -1.232496    3.392991    0.036685
C      -0.051568    3.973988    0.023706
F      -0.049598    5.289090    0.032042
N       1.148324    3.407205    0.005851
C       1.151390    2.097111   -0.000618
F       2.313848    1.481801   -0.018734
H      -2.160591    1.529814    0.039625
