16

C      -0.116558    1.468533    0.027124
N       0.146607    0.035681    0.000720
C       0.677487   -0.692730    1.015457
C       0.676881   -2.038160    1.199585
C       1.432932   -2.370187    2.399890
N       1.632846   -3.538202    2.870879
N       1.880152   -1.136623    2.919866
C       1.478135   -0.069865    2.146727
O       1.731067    1.097530    2.353260
H       0.677433    1.973339    0.572965
H      -0.143074    1.839267   -1.000926
H      -1.075503    1.708614    0.507728
H      -0.409554   -0.495159   -0.652399
H       0.210202   -2.795113    0.587584
H       2.189770   -3.506567    3.726366
H       2.437370   -1.021571    3.750194
