14

N      -0.004232    1.046818   -0.602787
C      -0.023629   -0.052922    0.013319
C      -1.263058   -0.897479    0.278016
C      -0.720530   -2.178538    0.879999
C       0.288967   -2.959553    0.056388
C       0.752375   -1.940737    1.056079
O       1.085850   -0.664889    0.544431
H       0.947200    1.414280   -0.653461
H      -1.914858   -0.370243    0.982006
H      -1.828368   -1.033452   -0.647391
H      -1.300891   -2.701077    1.629770
H       0.427913   -4.006073    0.304574
H       0.403132   -2.720757   -0.996586
H       1.328663   -2.198531    1.935230
