17

O       0.201474   -0.038470   -0.251325
C       0.086146    1.151061   -0.079342
C      -1.230899    1.933637    0.025525
C      -0.828286    3.415899    0.018917
C      -1.412233    4.359969   -1.072062
C      -2.042796    5.118576    0.108727
O      -1.454533    4.209153    1.063322
C       0.674909    3.379835    0.141776
C       1.181022    2.144782    0.068454
H      -1.919937    1.647270   -0.772490
H      -1.711904    1.698847    0.980447
H      -0.668172    4.916847   -1.644137
H      -2.110192    3.882493   -1.760955
H      -1.693507    6.147095    0.255436
H      -3.137914    5.106334    0.156564
H       1.238653    4.298755    0.265072
H       2.224514    1.857659    0.102226
