15

N      -0.084149    1.437369    0.096083
C      -0.012200    0.028582   -0.044920
C       0.597402   -0.764833   -1.264522
O       0.798732   -2.131240   -0.898416
C      -0.522559   -1.699839   -1.240708
C      -1.165260   -0.968008   -0.025126
C      -0.227394   -0.861957    1.164818
C       0.645937   -1.876584    1.699404
N       1.314620   -2.641302    2.252431
H       0.822579    1.836008    0.322440
H      -0.414962    1.881681   -0.754888
H       1.192344   -0.352270   -2.071682
H      -1.043631   -2.232699   -2.025612
H      -2.224593   -0.776673    0.083163
H      -0.690582   -0.276858    1.955831
