23

C       0.759530    0.142023    1.000373
C      -0.079184   -0.086693   -0.262782
C      -1.460953   -0.699167   -0.024101
C      -2.353873    0.075356    0.947053
C      -2.652527    1.512285    0.507686
O      -2.150412   -0.862055   -1.307543
C      -2.125045   -2.296112   -1.210875
C      -1.481612   -2.241553    0.189685
O      -0.205536   -2.822187    0.338021
H       1.749343    0.526018    0.734661
H       0.297405    0.870032    1.674764
H       0.898727   -0.793554    1.547948
H      -0.230868    0.858087   -0.796981
H       0.464564   -0.744997   -0.946062
H      -3.298872   -0.474152    1.036580
H      -1.892948    0.063776    1.942698
H      -1.757545    2.141559    0.526830
H      -3.052175    1.521634   -0.510405
H      -3.393145    1.972528    1.168586
H      -3.128140   -2.735347   -1.280336
H      -1.472467   -2.755445   -1.965125
H      -2.151463   -2.549787    1.002333
H      -0.315834   -3.765755    0.488739
