20

O      -0.078083    1.422163    0.118586
C      -0.015099    0.007720   -0.013031
C      -1.425842   -0.526284   -0.017142
C      -2.232584   -0.425873    1.322689
C      -2.635403   -1.893740    1.137816
C      -1.644871   -2.072634    0.033836
N      -3.067748   -2.198083   -0.236555
C      -3.529113   -1.044638   -1.045683
C      -2.323738   -0.079184   -1.176882
H       0.820746    1.763635    0.136348
H       0.489316   -0.282449   -0.950456
H       0.551735   -0.443363    0.817795
H      -1.568304   -0.305780    2.182427
H      -3.023987    0.328514    1.378309
H      -2.947914   -2.581532    1.916344
H      -0.950582   -2.869157   -0.209873
H      -3.865437   -1.418798   -2.016675
H      -4.390826   -0.576818   -0.559279
H      -2.605545    0.973786   -1.097695
H      -1.809624   -0.218748   -2.135643
