15

C      -0.024801    1.556399    0.023414
C       1.466118    2.005527    0.032015
C       2.198257    0.740588    0.464333
O       1.675370    0.351913    1.782738
C       0.844329   -0.615266    1.138978
C       0.045760    0.027967    0.020734
C       1.470531   -0.446071   -0.207206
H      -0.554920    1.928962    0.904726
H      -0.554846    1.926168   -0.858837
H       1.799840    2.307681   -0.967866
H       1.655317    2.834672    0.719362
H       3.289052    0.772136    0.462886
H       0.540602   -1.486141    1.708169
H      -0.768045   -0.558794   -0.391412
H       1.833722   -1.141659   -0.950121
