21

C      -0.744701    0.923649    0.062322
O       0.435719    0.167109   -0.150965
C       0.937831   -0.461400    1.023750
C       0.177279   -1.788909    1.362551
O      -0.493998   -2.274654    0.214922
C       1.295759   -2.765295    1.803477
C       2.549319   -2.148045    1.239063
C       2.369349   -0.900468    0.802942
C       3.375361    0.033008    0.209772
H      -0.585241    1.696431    0.827943
H      -0.990511    1.407809   -0.885745
H      -1.585331    0.287397    0.368086
H       0.871564    0.254753    1.860191
H      -0.564506   -1.643405    2.157071
H      -0.271223   -1.665769   -0.502658
H       1.349243   -2.845950    2.898135
H       1.088594   -3.769072    1.418140
H       3.502230   -2.667747    1.224078
H       4.350375   -0.448031    0.096082
H       3.042319    0.388865   -0.770833
H       3.506543    0.924849    0.836888
