17

O      -0.154771    1.502586   -0.089721
C      -0.026225    0.101851   -0.091150
C      -1.337144   -0.668090   -0.131827
C      -1.732867   -0.834080   -1.574494
C      -0.681886   -0.126159   -2.434600
C       0.364181   -0.637307   -1.409281
C      -0.650406   -1.753741   -0.986689
C      -0.620924   -3.191970   -0.791542
O       0.350095   -3.899477   -0.940064
H       0.720425    1.889399    0.015952
H       0.592977   -0.253486    0.742675
H      -2.033794   -0.835574    0.679314
H      -2.739226   -1.125382   -1.846926
H      -0.569114   -0.616218   -3.403890
H      -0.767315    0.957270   -2.552580
H       1.404669   -0.793766   -1.680325
H      -1.605679   -3.616153   -0.483084
