19

C       0.144618    1.542792    0.044384
C       0.034781    0.021573   -0.001017
C      -1.416993   -0.437627    0.216696
C       0.691610   -0.769040   -1.189002
C       2.030909   -0.242383   -1.720409
O       2.769162   -0.889011   -0.652961
C       1.581196   -1.574364   -0.186150
C       0.957954   -0.762173    0.969918
O       1.118319   -0.729063    2.154481
H       1.176086    1.886280   -0.069419
H      -0.461483    2.004865   -0.742902
H      -0.216695    1.911377    1.009469
H      -2.066560   -0.019640   -0.560114
H      -1.509696   -1.528518    0.181378
H      -1.780925   -0.102280    1.192170
H       0.004087   -1.230148   -1.895814
H       2.313713   -0.660036   -2.694775
H       2.186833    0.841069   -1.738437
H       1.701958   -2.658636   -0.119532
