17

N      -0.029351    1.192831    0.718455
C       0.051454    0.099708    0.081813
O       1.255502   -0.496700   -0.173713
C       1.537589   -0.988064   -1.479563
O       0.940786   -2.199937   -1.790519
C      -0.359532   -2.107340   -2.335664
C      -1.418559   -1.611187   -1.374540
N      -1.331331   -2.039374    0.013324
C      -1.213613   -0.596300   -0.296205
H       0.909917    1.541456    0.921868
H       1.275912   -0.216718   -2.221763
H       2.615528   -1.156889   -1.471091
H      -0.356358   -1.461116   -3.229116
H      -0.616151   -3.121574   -2.658528
H      -2.403822   -1.573114   -1.842541
H      -2.248096   -2.234553    0.405015
H      -2.066031    0.037424   -0.070964
