15

C       0.529138    1.492760    0.374910
C       0.067004    0.109941   -0.027655
C       0.646728   -0.660243   -1.216278
C       1.749652   -0.076694   -2.042221
O       1.757894   -0.154883   -3.244033
N       0.886661   -1.057469    0.154622
C       2.107464   -1.200257    0.786790
O       3.102458   -1.652896    0.276174
H       1.599655    1.639686    0.215259
H      -0.011936    2.250735   -0.199523
H       0.317912    1.666953    1.434651
H      -0.992790   -0.072180    0.148466
H      -0.025111   -1.297269   -1.786627
H       2.556417    0.438227   -1.484584
H       2.040738   -0.924278    1.856093
