18

C       0.013967    1.498440    0.101556
C      -0.034767   -0.007628   -0.105471
C       0.796714   -0.496332   -1.284959
C       0.808386   -2.023947   -1.309071
C       1.405616   -2.537521    0.002951
C       0.904919   -1.842328    1.263238
O       1.022043   -2.326774    2.356236
O       0.380590   -0.597241    1.151672
H       1.044313    1.831160    0.260403
H      -0.388432    2.014668   -0.775371
H      -0.577116    1.782539    0.975543
H      -1.078329   -0.317881   -0.261202
H       0.371150   -0.085084   -2.206376
H       1.820579   -0.109289   -1.198502
H      -0.217567   -2.395006   -1.427703
H       1.380934   -2.405320   -2.160040
H       1.251159   -3.608900    0.148582
H       2.492984   -2.382914    0.000023
