15

N      -0.092050   -1.171938   -0.082055
C      -0.093902   -0.015969   -0.048951
C      -0.133773    1.435419   -0.008451
C      -0.092098    1.990697    1.459932
O       1.334403    2.357199    1.296282
C       1.195761    2.159997   -0.043811
N       1.615618    2.706050   -1.093303
C       0.574977    2.346564   -2.104181
C      -0.739603    2.068858   -1.283844
H      -0.690757    2.888951    1.625249
H      -0.218017    1.257268    2.255194
H       0.452516    3.183573   -2.794658
H       0.881375    1.471473   -2.689567
H      -1.457146    1.428796   -1.799325
H      -1.223339    3.018786   -1.038003
