20

C      -0.078387    1.480887    0.016439
C       0.017012   -0.034007   -0.051998
C       0.830103   -0.593651   -1.205796
C       2.053090   -0.568940   -0.323926
N       1.102244   -0.546611    0.893531
C       1.014165   -2.069047    0.763116
C      -0.275323   -2.775660    1.146180
C       1.484240   -1.899770   -0.675641
O       2.056720   -2.830749   -1.517257
H       0.896644    1.945387   -0.159833
H      -0.779046    1.859617   -0.735695
H      -0.431469    1.790940    1.004694
H      -0.969045   -0.470220    0.140799
H       0.774356   -0.406236   -2.272359
H       3.036725   -0.126238   -0.377809
H       1.839277   -2.464837    1.365912
H      -1.100904   -2.563120    0.462133
H      -0.116452   -3.859236    1.145955
H      -0.581947   -2.484610    2.156776
H       1.355626   -3.269194   -2.011752
