21

C      -0.025084    1.424490    0.009732
C      -0.000198   -0.030418    0.001871
C       0.020412   -1.235757   -0.004645
C       0.044920   -2.670107   -0.012495
C       0.786012   -3.617074    0.988238
C       0.077374   -4.570324   -0.022952
C       0.103048   -6.074183   -0.031232
C      -1.172239   -3.645672    0.106980
C       0.569838   -3.609009   -1.148486
H       0.545979    1.828745    0.853219
H       0.407598    1.835886   -0.909259
H      -1.049334    1.805541    0.091686
H       1.879114   -3.589294    0.958476
H       0.411488   -3.620176    2.015986
H      -0.309712   -6.481096    0.898583
H      -0.487535   -6.474421   -0.862811
H       1.126586   -6.450872   -0.135996
H      -1.693035   -3.650930    1.068895
H      -1.875201   -3.644122   -0.731100
H      -0.002922   -3.604715   -2.080396
H       1.646780   -3.580632   -1.338011
