20

C      -0.020210    1.572968    0.047577
C       0.083080    0.064987    0.070090
O      -1.082773   -0.575631   -0.400332
C       1.335746   -0.728865   -0.218225
C       2.599155   -0.068359    0.352166
C       1.927934   -0.100441    1.744233
C       2.599206   -0.396379    3.025045
N       1.950754    0.914754    2.798993
C       0.680439   -0.743439    1.184712
H       0.850268    2.058196    0.491725
H      -0.121695    1.936686   -0.983140
H      -0.904604    1.889419    0.608247
H      -1.172062   -0.366347   -1.336796
H       1.321743   -1.516936   -0.960931
H       3.480453   -0.713333    0.297650
H       2.861221    0.916230   -0.051667
H       2.109840   -1.021289    3.768035
H       3.685489   -0.452218    3.032118
H       2.659084    1.615153    2.590407
H       0.099105   -1.525085    1.658127
