18

C      -0.586828    1.376557   -0.005455
C       0.043848   -0.007642   -0.032323
C       1.340937   -0.242893   -0.878376
C       2.039218   -0.855065    0.356421
O       2.796643    0.127097    1.097019
C       1.693901    0.410645    1.983434
C       0.765393   -0.559381    1.224764
O      -0.014165   -1.454587    1.950735
H       0.149825    2.154357    0.222386
H      -1.025408    1.619388   -0.979223
H      -1.384940    1.434533    0.742585
H      -0.713332   -0.750322   -0.302405
H       1.208232   -0.926075   -1.720608
H       1.840847    0.663821   -1.227541
H       2.557732   -1.813091    0.267836
H       1.907686    0.082339    3.012894
H       1.427799    1.474052    2.006004
H       0.500135   -1.779945    2.698003
