12

C      -0.196422    1.458352   -0.113868
C       0.205952    0.022662    0.038657
O       1.037357   -0.448171    0.748451
O      -0.579737   -0.769029   -0.815290
C      -0.285065   -2.076127   -0.870933
N      -1.074804   -3.015459   -0.442625
O      -0.432455   -4.153402   -0.782147
N       0.768991   -3.827547   -1.422155
N       0.848867   -2.576006   -1.474252
H       0.373631    2.068207    0.585034
H      -0.007229    1.785832   -1.140214
H      -1.268318    1.566757    0.071828
