17

O      -0.008129   -0.006010   -0.338492
C       0.023417    1.161148   -0.078051
O      -1.107625    1.870202    0.219983
C      -0.806037    3.235244    0.522381
C      -0.419712    3.498658    2.005010
C       1.076114    3.601020    1.604857
C       1.798121    2.235205    1.462505
C       1.232029    2.078614    0.005946
C       0.662986    3.511644    0.091915
H      -1.608181    3.845759    0.108370
H      -0.818903    4.453611    2.356906
H      -0.701170    2.715308    2.713745
H       1.650561    4.422834    2.030519
H       2.884407    2.345067    1.444490
H       1.539666    1.451325    2.179840
H       1.962297    1.823592   -0.759532
H       0.879898    4.248392   -0.678614
