21

C      -0.030049    1.644403    0.129128
C      -0.034012    0.114514    0.007905
C       0.741972   -0.546298    1.154323
O       2.090705   -0.103806    1.087101
C      -1.427291   -0.442728   -0.043194
C      -1.877946   -1.715734   -0.693931
C      -2.554792   -0.404758   -1.054224
C      -3.421221    0.033567    0.117566
O      -2.315286   -0.123970    1.047176
H       0.992624    2.011992    0.231962
H      -0.482785    2.107361   -0.753107
H      -0.604713    1.955006    1.006857
H       0.466323   -0.175112   -0.925540
H       0.275510   -0.272114    2.112613
H       0.678906   -1.640893    1.054338
H       2.547482   -0.413689    1.873974
H      -1.220949   -2.108731   -1.463914
H      -2.405193   -2.464917   -0.108697
H      -2.590454   -0.012548   -2.061728
H      -3.734433    1.082607    0.068584
H      -4.279066   -0.596626    0.382657
