19

O       0.031984    1.520102    0.166943
C       0.057941    0.111721    0.045984
C       0.755499   -0.504522    1.273206
C       0.065321   -0.172955    2.620043
C      -1.437561   -0.044703    2.529763
C      -2.040626   -0.240274    1.369103
C      -3.242250    0.245059    0.597709
O      -2.399333    0.327133   -0.598971
C      -1.356809   -0.462491    0.052681
H      -0.767628    1.809716   -0.292753
H       0.596785   -0.183671   -0.868080
H       0.788405   -1.590977    1.123853
H       1.794104   -0.162246    1.304658
H       0.360522   -0.913792    3.373946
H       0.441424    0.789565    2.990394
H      -1.969888    0.329763    3.400791
H      -4.053027   -0.480220    0.447189
H      -3.666493    1.215584    0.876551
H      -1.364121   -1.491730   -0.332282
