21

C       1.105069    2.623039   -0.182338
N       0.885298    1.199583   -0.388883
C       1.988164    0.245108   -0.392503
C       3.341322    0.645836    0.201819
C       3.076667    0.812220    1.695020
N       2.652206   -0.377425    2.450046
C       1.630442    0.589574    1.997826
C       0.851616    1.289315    3.083434
C       0.954502    0.226174    0.696734
H       1.864332    2.885523    0.566801
H       1.400002    3.070378   -1.137146
H       0.157988    3.081032    0.120220
H       1.976300   -0.462621   -1.217353
H       4.093281   -0.128781    0.009082
H       3.726865    1.572461   -0.240071
H       3.677883    1.518154    2.261656
H       2.660260   -1.199674    1.848246
H       1.490938    1.477490    3.949433
H       0.444734    2.242848    2.731545
H       0.011063    0.669912    3.416777
H       0.135376   -0.491518    0.726913
