15

C      -0.000448    1.412516   -0.014816
O       0.022732   -0.019072   -0.039584
C       0.611309   -0.636450   -1.069540
C       0.646743   -1.993510   -1.115374
C       1.283696   -2.639893   -2.230486
N       1.380223   -3.906789   -2.385183
N       1.791550   -1.676010   -3.137667
N       1.732675   -0.346437   -3.050044
N       1.160215    0.184218   -2.047262
H       1.011173    1.825612   -0.001134
H      -0.535704    1.815723   -0.878035
H      -0.524427    1.668617    0.906594
H       0.209102   -2.602122   -0.336298
H       1.869974   -4.153668   -3.245624
H       2.267434   -1.988990   -3.972845
