17

C      -0.198147    1.378526   -0.081687
C       0.038235   -0.101461    0.067297
N      -1.130304   -0.971749    0.320196
C      -0.504076   -1.550294    1.543310
C       0.818714   -0.848750    1.185222
O       1.609698   -1.562116    0.208894
C       1.048133   -0.809812   -0.890415
C       0.503006   -1.639260   -1.962662
N       0.088962   -2.264558   -2.841484
H       0.742012    1.924946   -0.203285
H      -0.820529    1.577762   -0.962059
H      -0.715654    1.781134    0.795231
H      -1.996189   -0.470777    0.475519
H      -0.928686   -1.184570    2.486891
H      -0.473316   -2.643500    1.557886
H       1.430709   -0.402378    1.970785
H       1.799027   -0.129510   -1.314342
