19

C      -0.087815    1.443150   -0.325005
C       1.317247    1.671360    0.300633
C       1.420059    0.156083    0.645790
C       1.287927   -0.210070    2.132536
C      -0.215296   -0.056888    2.440620
C      -0.902339   -0.565820    1.157258
C      -0.001969   -0.074884    0.012594
H      -0.907203    1.972427    0.171563
H      -0.147572    1.662568   -1.393928
H       2.074185    2.023418   -0.404642
H       1.334535    2.336537    1.169742
H       2.257982   -0.353786    0.165475
H       1.588103   -1.254573    2.282743
H       1.923275    0.405889    2.777924
H      -0.525949   -0.601390    3.336895
H      -0.461449    0.998873    2.608314
H      -0.924552   -1.662687    1.163910
H      -1.937295   -0.221159    1.058899
H      -0.047945   -0.728314   -0.861306
