23

C      -0.101201    1.560552   -0.474816
C      -0.035353    0.193393    0.216736
C      -1.375881   -0.514955    0.219475
C      -1.816809   -1.360086   -0.953551
C      -1.534617   -2.009710    0.383688
C      -0.366774   -2.956028    0.563857
C      -0.722988   -4.396117    0.130955
C       0.383009   -5.330873    0.296254
C       1.314058   -6.077481    0.441687
H       0.872850    2.059542   -0.463411
H      -0.416864    1.457119   -1.518191
H      -0.819806    2.220698    0.023484
H       0.717525   -0.426546   -0.282653
H       0.313656    0.323354    1.249769
H      -2.164955    0.072215    0.685810
H      -2.840815   -1.292280   -1.304479
H      -1.089209   -1.521785   -1.744635
H      -2.417482   -2.309937    0.945364
H       0.498385   -2.622915   -0.017434
H      -0.047123   -2.972199    1.612724
H      -1.587838   -4.746868    0.709554
H      -1.045644   -4.386790   -0.917895
H       2.127888   -6.747669    0.566046
