17

O      -0.063142    1.390586    0.012355
C       0.001346    0.000041    0.048800
C      -0.360030   -0.785179   -1.176744
C      -1.295599   -0.794572    0.039289
C      -1.080320   -1.908316    0.988141
C       0.154279   -1.877236    1.527497
C       0.934611   -0.662838    1.066785
C       0.673334   -2.867246    2.465744
O       1.785614   -2.836467    2.948626
H       0.669215    1.711982   -0.525014
H      -0.710939   -0.205592   -2.023980
H       0.178626   -1.695346   -1.420232
H      -2.262889   -0.318227   -0.064690
H      -1.827730   -2.664980    1.204371
H       1.908831   -0.933098    0.645585
H       1.127816    0.020670    1.902158
H      -0.043995   -3.679325    2.723028
