17

C       0.060963    1.442205    0.022031
N      -0.030016   -0.003301    0.049474
C       0.531114   -0.638007   -0.891897
N       0.503474   -2.028825   -0.970115
C      -0.207937   -2.790703    0.048407
C       1.157791   -2.634266   -2.048667
N       1.119111   -4.012356   -2.043403
O       1.684104   -2.001469   -2.944258
H       0.629250    1.835731   -0.835335
H      -0.945934    1.875477   -0.004215
H       0.535051    1.800125    0.943651
H       1.081229   -0.193218   -1.723689
H      -0.903439   -3.496701   -0.413912
H       0.482789   -3.337265    0.703334
H      -0.760970   -2.076415    0.657224
H       1.025432   -4.517077   -1.177903
H       1.732519   -4.425308   -2.727939
