18

C       0.078640    1.421580   -0.095471
O      -0.048338    0.011943    0.108404
C       0.683591   -0.477611    1.139935
O       1.398106    0.189352    1.853795
N       0.486130   -1.824650    1.240347
C       1.124833   -2.630479    2.237582
C       0.262781   -3.594884    3.087868
O       1.151427   -4.691494    2.798587
C       1.854586   -3.924318    1.802122
H       1.114841    1.691627   -0.314591
H      -0.562050    1.654808   -0.946390
H      -0.248151    1.974053    0.789173
H      -0.139502   -2.249727    0.574565
H       1.744929   -1.962997    2.834273
H       0.187504   -3.390411    4.161245
H      -0.746053   -3.758589    2.680595
H       1.607854   -4.245755    0.779269
H       2.940894   -3.960265    1.937235
