15

C      -0.042342    1.569157   -0.058063
C       0.039930    0.083721   -0.046998
C       0.570029   -1.004192   -0.904605
C       1.297405   -1.590745    0.299069
N       0.362693   -0.786433    1.193986
C      -0.929870   -1.478840    0.902302
O      -1.658548   -2.060198    1.641055
C      -0.937785   -0.999783   -0.504563
H       0.927160    2.017678    0.180729
H      -0.352035    1.927435   -1.044544
H      -0.770494    1.921696    0.679240
H       0.848496   -0.970512   -1.952021
H       1.265178   -2.670902    0.477321
H       2.320893   -1.222952    0.402036
H      -1.729868   -0.948308   -1.239690
