17

N       0.110420    1.357133    0.165191
C       0.010220    0.000256    0.056519
C      -1.100588   -0.795841    0.006675
C      -0.727029   -2.267634    0.044234
C       0.794811   -2.250135    0.006971
N       1.356303   -1.633580   -1.210184
C       1.248508   -0.832321    0.043709
C      -2.464468   -0.347449   -0.097453
O      -3.439303   -1.077251   -0.145598
H       0.945248    1.788840   -0.198644
H      -0.725201    1.908726    0.047730
H      -1.092862   -2.753549    0.956937
H      -1.150227   -2.818874   -0.801673
H       1.363407   -3.030911    0.500256
H       2.324653   -1.936700   -1.305271
H       2.149732   -0.492137    0.543534
H      -2.601849    0.761905   -0.135878
