20

C      -0.069711   -1.079196   -0.565936
C      -0.002440    0.028891   -0.104593
C       0.101180    1.372493    0.456645
C       1.474686    1.994820    0.246845
C       1.810014    2.667053   -1.062888
C       1.632188    3.495032    0.183449
N       0.451373    4.309218    0.275933
C       0.335775    5.164381    1.454028
C       0.635614    5.748527    0.117212
H      -0.139617   -2.055981   -0.975534
H      -0.656183    2.027383    0.013559
H      -0.124844    1.333730    1.530777
H       2.283768    1.454902    0.729843
H       2.805490    2.550189   -1.475918
H       1.016207    2.731755   -1.799277
H       2.536242    3.910346    0.638774
H      -0.658290    5.247393    1.883928
H       1.146563    5.140261    2.180239
H       1.646449    6.115880   -0.050647
H      -0.136085    6.264547   -0.446812
