13

O      -0.042917    1.420449    0.008211
C       0.023315    0.007100    0.002017
C      -1.378735   -0.507004    0.011967
C      -2.538382    0.197583    0.023380
O      -3.595269   -0.635605    0.029445
N      -3.160964   -1.936386    0.022083
C      -1.841913   -1.857474    0.011861
C      -1.041039   -3.035223    0.001730
N      -0.336098   -3.951922   -0.006596
H       0.854110    1.766354    0.002038
H       0.549477   -0.373932   -0.887837
H       0.564625   -0.381050    0.879612
H      -2.754648    1.252604    0.028227
