13

O      -0.538919    0.711093   -0.786447
C       0.266496    0.878614    0.085044
C       1.451811    1.811151    0.000525
C       1.802725    2.522623    1.263600
O       2.537415    1.389163    0.859517
C       1.792346    2.370266   -1.272937
C       2.061259    2.827489   -2.360092
C       2.370199    3.346858   -3.577450
C       2.645595    3.809111   -4.658181
H       0.223580    0.353615    1.064474
H       2.308045    3.481759    1.173168
H       1.168369    2.393259    2.140474
H       2.886397    4.213728   -5.610150
