19

C       0.075666    1.515509    0.095782
C       0.048393    0.060221    0.071571
C       0.025007   -1.142999    0.050570
C      -0.019433   -2.599362    0.032259
C      -1.448457   -3.169271   -0.095059
O      -2.118672   -2.686861   -1.248377
C      -1.431770   -4.710326   -0.066180
C      -2.825373   -5.304158   -0.092426
O      -3.194453   -6.196035    0.628748
H       0.864507    1.910143   -0.554160
H      -0.876537    1.934729   -0.247422
H       0.259461    1.894773    1.107048
H       0.584653   -2.987645   -0.802490
H       0.438765   -3.004444    0.943864
H      -2.042577   -2.797993    0.747707
H      -1.537329   -2.806869   -2.007907
H      -0.899129   -5.067006   -0.961707
H      -0.904820   -5.096685    0.811511
H      -3.502987   -4.846973   -0.843915
