16

C      -0.108786    1.652956    0.132107
C       0.062343    0.149375    0.030068
O       1.172092   -0.264698   -0.821808
C       1.847991   -0.964747    0.252818
C       0.736581   -0.571130    1.187869
N       0.402102   -0.714135    2.396325
O       1.357639   -1.456882    3.099976
C      -1.216483   -0.562229   -0.420571
O      -2.324708   -0.128186   -0.260750
H       0.790071    2.118336    0.541524
H      -0.306149    2.070460   -0.859369
H      -0.962243    1.876634    0.776124
H       1.948823   -2.040247    0.061658
H       2.836087   -0.544572    0.476705
H       0.984753   -1.486514    3.988340
H      -1.018493   -1.537272   -0.916853
