19

C      -0.039651    1.621539    0.003065
N      -0.013009    0.165203    0.025683
C       1.248036   -0.501430   -0.264950
C       0.668030   -0.539410    1.110763
C       1.338591    0.171904    2.244554
C       0.701599    0.258590    3.608126
N       1.787421   -0.658576    3.355441
C       3.029559   -0.554896    3.963496
O       3.209912   -0.269651    5.120875
H       0.912232    2.105873    0.272017
H      -0.303136    1.946477   -1.008147
H      -0.814432    1.981834    0.686943
H       1.198093   -1.371602   -0.914083
H       2.132421    0.120904   -0.407074
H       0.155709   -1.444379    1.434530
H       1.991964    1.000539    1.979527
H       0.920740    1.124279    4.227446
H      -0.273291   -0.194548    3.765494
H       3.846395   -0.830954    3.269278
