19

N      -1.918573   -0.423958    2.042616
C      -2.611877    0.002242    0.957688
O      -3.490546    0.842422    0.985763
C      -2.173756   -0.651399   -0.362096
N      -1.399115   -1.872752   -0.148402
C      -0.818563   -2.600357   -1.350996
C      -0.704643   -3.836653   -0.422175
C      -2.112045   -3.220091   -0.215692
C      -2.231136   -3.103750   -1.763520
H      -2.107293   -0.014063    2.941210
H      -1.190946   -1.108797    1.910709
H      -3.080563   -0.747768   -0.971736
H      -1.527388    0.075440   -0.870345
H      -0.045482   -2.142543   -1.970662
H      -0.660091   -4.813654   -0.904847
H      -0.014552   -3.736065    0.416082
H      -2.875358   -3.498286    0.512264
H      -2.930779   -2.370599   -2.163101
H      -2.281796   -4.037997   -2.328400
