16

C       0.064369    1.652838   -0.228263
N      -0.023215    0.226586    0.001534
C       0.544945   -0.534361   -0.837359
N       0.554462   -1.909516   -0.762184
C      -0.029374   -2.707805    0.203055
N       0.097453   -4.015647    0.090005
O      -0.581137   -4.542468    1.185612
C      -1.085536   -3.533893    1.908613
C      -0.781759   -2.334039    1.355889
H       0.633216    1.922277   -1.133603
H      -0.942202    2.078300   -0.318094
H       0.539410    2.140334    0.631346
H       1.093628   -0.172738   -1.718237
H       1.040227   -2.411055   -1.488671
H      -1.637640   -3.820390    2.790576
H      -1.026714   -1.338634    1.674202
