22

C       0.387246    1.707314    0.033204
C       0.079946    0.211458    0.043430
C       0.602271   -0.559576   -1.201819
C       0.889648   -1.969048   -0.703486
N       2.176327   -2.075106    0.026531
C       0.915946   -1.971103    0.785162
C       0.479741   -3.145145    1.635501
O       0.747406   -4.401324    1.028247
C       0.646161   -0.549738    1.274992
H       1.469270    1.881133    0.013356
H      -0.045756    2.197441   -0.845613
H      -0.014992    2.204951    0.922374
H      -1.010817    0.083737    0.063510
H      -0.130943   -0.550669   -2.014340
H       1.525615   -0.109910   -1.583808
H       0.562192   -2.829615   -1.280476
H       2.446162   -3.059649    0.034438
H       1.042968   -3.147529    2.576669
H      -0.584712   -3.042383    1.897237
H       0.116260   -4.521653    0.311801
H       1.581793   -0.098199    1.622151
H      -0.060027   -0.531269    2.112723
