19

O       0.186744    1.370412    0.184292
C       0.128539   -0.045162    0.122449
C      -1.339839   -0.448849    0.087315
C      -1.533809   -1.966824    0.022130
C      -3.003897   -2.379617   -0.019651
C      -3.697986   -2.076079   -1.345210
O      -4.889425   -2.133130   -1.501806
C      -3.226510   -3.867441    0.277566
O      -2.351524   -4.630542    0.585536
H       1.110921    1.634421    0.210943
H       0.640736   -0.428795   -0.775451
H       0.617932   -0.506185    0.996101
H      -1.832716   -0.044730    0.980299
H      -1.810529    0.043403   -0.773277
H      -1.026533   -2.375922   -0.862025
H      -1.060562   -2.451694    0.881621
H      -3.594472   -1.854389    0.746647
H      -3.010240   -1.836653   -2.187162
H      -4.285863   -4.185233    0.185809
