16

C      -0.151424    1.614502   -0.015382
C      -0.055231    0.095574    0.005087
C       1.153107   -0.593462   -0.669964
C       2.112073   -0.347742    0.535618
O       2.522609   -1.740141    0.647812
C       1.108309   -1.809884    0.307309
C       0.686128   -0.594390    1.179866
O       0.333842   -0.683213    2.504668
H       0.808678    2.084525    0.226173
H      -0.458527    1.979772   -1.000941
H      -0.892137    1.973442    0.708592
H      -1.020216   -0.365614   -0.235997
H       1.439248   -0.624938   -1.718288
H       2.857119    0.429261    0.701734
H       0.635130   -2.784160    0.191173
H       0.275233    0.205771    2.871818
