14

N       0.053253    1.039548   -0.629378
C      -0.277961    0.038949    0.361620
C       0.895267   -0.472076    1.182915
O       2.042722   -0.153118    1.075884
O       0.450539   -1.383790    2.125160
C       1.374363   -2.055010    2.884408
N       1.189950   -2.135301    4.127765
C       2.440681   -2.715920    2.158946
N       3.286366   -3.315308    1.646900
H       0.468614    1.848559   -0.177200
H       0.768001    0.680012   -1.255134
H      -1.028940    0.426249    1.060003
H      -0.745202   -0.830467   -0.117257
H       1.896420   -2.723328    4.569260
