17

C       0.301889    1.010044    0.571378
O      -0.237065    0.291773   -0.532732
C       0.583119   -0.620548   -1.089696
N       0.178702   -1.317666   -2.055620
C       1.043291   -2.311105   -2.668039
C       2.399771   -2.622940   -2.032372
C       0.199490   -3.578090   -2.847012
O       0.640816   -4.697123   -2.837150
H       0.531062    0.342938    1.411144
H       1.207000    1.561673    0.289562
H      -0.466432    1.719850    0.879369
H       1.577956   -0.669640   -0.629275
H       1.214943   -1.971349   -3.705666
H       3.072746   -1.761880   -2.073448
H       2.285952   -2.931781   -0.988258
H       2.861478   -3.453294   -2.569922
H      -0.879220   -3.365549   -3.004235
