20

C       0.110948    1.640995    0.055869
C       0.111449    0.109591    0.095235
C       0.600328   -0.525781   -1.216169
N       1.989906   -0.221532   -1.530677
C       2.835223   -1.224863   -1.100944
O       4.027592   -1.187267   -0.977346
O       2.075466   -2.330044   -0.834930
C       0.709619   -2.075334   -1.220805
C      -0.225584   -2.857257   -0.319655
H       1.120393    2.045729   -0.074021
H      -0.510365    2.017936   -0.764264
H      -0.282283    2.054260    0.988845
H       0.737914   -0.241755    0.923890
H      -0.906599   -0.245031    0.293996
H      -0.055905   -0.203324   -2.033625
H       2.350829    0.718493   -1.512438
H       0.597093   -2.420552   -2.257225
H      -0.110036   -2.567205    0.727006
H      -1.265993   -2.694552   -0.618177
H      -0.010412   -3.925386   -0.404614
