17

C      -0.285989    1.343684   -0.284849
O      -0.310747   -0.066531   -0.336228
C       0.864465   -0.609970   -0.919176
C       0.725141   -2.096704   -0.961931
N       1.709337   -2.880692   -0.591534
O       1.267496   -4.169464   -0.795177
C       0.000242   -4.131524   -1.273988
C      -0.412109   -2.841318   -1.407868
N      -1.590100   -2.289450   -1.914055
H       0.554624    1.708739    0.323839
H      -0.203386    1.786463   -1.289461
H      -1.222760    1.669330    0.172658
H       0.991348   -0.210385   -1.939851
H       1.759209   -0.339288   -0.341032
H      -0.461403   -5.086662   -1.465170
H      -2.382192   -2.916164   -1.871836
H      -1.802709   -1.412496   -1.453517
