16

O       0.210841   -0.106596   -0.088422
C       0.022709    1.087542   -0.032585
C       1.192152    2.001237    0.034897
N       2.098924    2.717147    0.087623
C      -1.277893    1.790283   -0.022404
C      -2.507842    1.367847   -0.825152
C      -2.648969   -0.156216   -0.931196
C      -2.679479   -0.235326    0.630255
C      -2.537656    1.291386    0.684184
H      -1.176052    2.869668    0.034244
H      -2.953467    2.099907   -1.488309
H      -3.606017   -0.436044   -1.376395
H      -1.845775   -0.691355   -1.437945
H      -3.652633   -0.556815    1.007153
H      -1.895585   -0.820401    1.111380
H      -3.010631    1.953581    1.399773
