16

O       0.107787    1.335525    0.041920
C      -0.009970   -0.042211   -0.096636
C       0.848716   -0.770823   -1.154538
C       0.255560   -2.162065   -1.007789
C      -0.907357   -2.085554   -0.327473
C      -0.845035   -2.330350    1.187788
C      -0.658869   -0.771519    1.185706
C      -1.363340   -0.628788   -0.140575
H       0.950400    1.524774    0.468887
H       0.749544   -0.254610   -2.119681
H       1.920940   -0.813936   -0.921730
H       0.908239   -3.027263   -0.928092
H      -1.788020   -2.581320    1.688338
H      -0.040750   -2.977032    1.551028
H      -0.817219   -0.134579    2.052956
H      -2.308214   -0.167910   -0.396562
