21

C       0.016440    1.609212   -0.098064
C       0.008729    0.091945   -0.036561
C       1.101575   -0.651771   -0.736353
C       1.091283   -0.635235    0.788881
C       2.151449    0.087857    1.521186
O       2.553115   -0.223464    2.616961
C      -1.337636   -0.586615    0.012533
C      -2.512843   -0.033869    0.780534
C      -2.550970   -0.074752   -0.727620
H       1.029226    2.003100   -0.204002
H      -0.554823    1.962251   -0.962523
H      -0.418339    2.056734    0.801174
H       0.877334   -1.597231   -1.218089
H       1.879360   -0.073842   -1.226728
H       0.766305   -1.536653    1.297902
H       2.590013    0.959863    0.983701
H      -1.250909   -1.670070    0.035799
H      -3.130448   -0.729565    1.337411
H      -2.409694    0.936991    1.251782
H      -2.481212    0.867782   -1.258331
H      -3.190176   -0.804198   -1.212662
