17

C      -0.041140    1.576866   -0.057308
C       1.506736    1.362942    0.011853
C       1.191744    0.166849    0.969268
C      -0.037074   -0.001171   -0.007683
C       0.710476   -0.284134   -1.294066
N       0.739524   -1.037272   -2.363464
C       1.850037   -0.571350   -3.056996
C       2.473582    0.460890   -2.389394
N       1.720478    0.629410   -1.252570
H      -0.447255    2.030120    0.849982
H      -0.438688    2.058479   -0.952641
H       2.229054    2.147796    0.222347
H       1.922955   -0.642448    1.013796
H       0.898241    0.491265    1.970345
H      -0.915577   -0.589381    0.239462
H       2.137796   -1.007640   -4.001417
H       3.342427    1.054118   -2.618718
