20

C       0.020220    1.594614   -0.099323
C       0.097341    0.108045    0.072628
C       0.931028   -0.864428   -0.655104
C       1.902924   -1.746849    0.145997
C       1.951213   -1.268205    1.635987
C       0.503566   -1.370561    2.046919
C      -0.365369   -0.725791    1.264083
C      -1.387264   -1.398232    0.374174
N      -0.604893   -0.877023   -0.826356
H       0.773357    2.101058    0.514876
H       0.193394    1.863821   -1.145577
H      -0.962839    1.977706    0.195027
H       1.317588   -0.548961   -1.621290
H       1.623381   -2.805859    0.114998
H       2.891041   -1.671629   -0.323992
H       2.608445   -1.898032    2.240221
H       2.342179   -0.246082    1.671817
H       0.186963   -2.252391    2.600645
H      -1.490767   -2.485343    0.454594
H      -2.376560   -0.935548    0.305161
