18

O       0.080691   -0.111356    0.171345
C      -0.023611    1.075750   -0.026520
C       1.164804    1.993967   -0.002414
C       1.129729    3.489277   -0.233035
C      -0.167566    4.293008   -0.051818
C      -0.543399    4.173617    1.423107
N      -0.835503    2.797419    1.867432
C       0.499230    3.372073    2.123506
C       1.546920    2.955136    1.122544
H      -0.986485    1.525156   -0.328342
H       2.032442    1.488955   -0.420281
H       1.863115    3.893183   -0.922928
H       0.037337    5.343786   -0.283546
H      -0.981135    3.972256   -0.710239
H      -1.069762    4.992234    1.904135
H      -1.399990    2.810935    2.712979
H       0.798716    3.569634    3.146458
H       2.581251    2.954876    1.445301
