16

O       0.055894    1.383820    0.276683
C      -0.001499    0.006459    0.084617
C      -1.416642   -0.526985   -0.113113
N      -1.172323   -1.781641   -0.937642
H      -1.011243   -2.571421   -0.303637
H      -1.992452   -2.027704   -1.495021
C       0.006369   -1.483911   -1.810601
C       0.113178   -2.227592   -3.019883
O       0.979606   -2.143844   -3.868315
C       0.691314   -0.379843   -1.254308
O       1.624368    0.307067   -1.648848
H       0.788826    1.659542   -0.306938
H       0.489263   -0.534583    0.914227
H      -1.974433   -0.791142    0.787454
H      -1.988932    0.165345   -0.732354
H      -0.738933   -2.957773   -3.153484
