17

O      -0.147696   -0.062337   -0.189147
C      -0.027710    1.122775   -0.054621
C      -1.244775    2.133751   -0.005690
N      -0.763716    3.502847    0.338795
C       0.591918    3.217596    0.758795
C       2.034660    3.769031    0.852452
N       2.210146    2.269091    1.222846
C       0.944778    2.478133    2.071799
C       1.204321    2.024682    0.049923
H      -1.777449    2.114971   -0.960994
H      -1.939300    1.761431    0.755699
H      -0.762044    4.085515   -0.493127
H       2.537217    4.050696   -0.076274
H       2.290695    4.438930    1.676878
H       1.111535    3.079194    2.968311
H       0.431130    1.543903    2.313411
H       1.667826    2.169518   -0.932648
