17

C      -0.212501    1.621620   -0.097432
C      -0.048735    0.116552    0.021608
C       1.173305   -0.592247   -0.708907
C       2.153567   -0.193726    0.418917
N       2.600829   -1.594703    0.884071
C       2.234919   -1.456935    2.336535
N       1.164059   -0.795577    2.566866
C       0.829747   -0.490952    1.150615
C       1.173236   -1.740297    0.320081
H       0.735928    2.146541    0.055108
H      -0.591398    1.892978   -1.088374
H      -0.925041    1.995988    0.644516
H      -1.001961   -0.402500   -0.129260
H       1.366751   -0.649180   -1.778294
H       2.805540    0.674958    0.509965
H       2.866433   -1.904541    3.095454
H       0.648655   -2.696328    0.295686
