18

C       0.114127    1.343515    0.053382
O      -0.007267   -0.052378    0.226313
C      -1.292570   -0.547512   -0.100749
C      -1.183894   -2.051158   -0.030378
O      -0.185432   -2.567802   -0.852814
C      -1.497488   -2.780403    1.243986
C      -2.424748   -2.914408    0.031543
C      -3.732520   -2.324530    0.050550
N      -4.781489   -1.835831    0.068676
H       1.139944    1.614761    0.312297
H      -0.085339    1.641321   -0.986913
H      -0.577069    1.892321    0.709793
H      -2.057894   -0.166903    0.590942
H      -1.573320   -0.242138   -1.121331
H       0.591144   -2.015022   -0.691941
H      -0.899660   -3.652835    1.477240
H      -1.867882   -2.217380    2.092550
H      -2.349880   -3.841671   -0.526082
