16

C      -0.028961    1.518914    0.133732
C      -0.003578    0.037006   -0.010987
C      -0.045168   -0.782236   -1.125331
N      -0.162442   -0.391529   -2.467052
N      -0.026776   -2.099661   -0.773451
C       0.029760   -2.115760    0.553710
N       0.058321   -0.841650    1.050266
C       0.059817   -3.250141    1.391828
C       0.089272   -4.198915    2.133714
H       0.956122    1.946551    0.363967
H      -0.375053    1.968155   -0.801161
H      -0.716908    1.839795    0.924983
H       0.545000    0.274613   -2.751388
H      -0.109279   -1.208018   -3.064070
H       0.103517   -0.597801    2.025738
H       0.113547   -5.045297    2.774255
