20

C      -0.028322    1.535398   -0.081546
C      -0.070467    0.042038    0.055299
C      -1.356792   -0.815298    0.112043
C      -0.650166   -1.772649    1.121732
C       0.617005   -0.907768    1.016823
N       1.077131   -0.743079   -0.352753
C       1.024715   -1.802796   -1.343402
C       2.381113   -2.484371   -1.444939
O       2.540699   -3.619642   -1.809363
H       0.983844    1.906263    0.098852
H      -0.326549    1.846136   -1.090362
H      -0.711695    2.014592    0.627643
H      -2.192958   -0.278893    0.566063
H      -1.695086   -1.241229   -0.837470
H      -1.096033   -1.721556    2.117169
H      -0.554145   -2.826510    0.843096
H       1.320926   -0.705157    1.817682
H       0.261065   -2.576543   -1.190587
H       0.828598   -1.345296   -2.324461
H       3.232637   -1.826359   -1.162464
