14

C      -0.108259    1.549349    0.110860
C      -0.022301    0.021068    0.010907
C       0.844243   -0.554263   -1.149495
O       1.813786   -1.059829   -0.185403
C       1.075253   -0.605992    0.882292
N       1.261626   -0.658156    2.115002
C      -1.333272   -0.603062    0.147789
N      -2.378116   -1.089166    0.232223
H       0.885337    1.987385   -0.015006
H      -0.774190    1.949754   -0.657950
H      -0.491039    1.836836    1.092397
H       0.396113   -1.366031   -1.724159
H       1.291753    0.194549   -1.806447
H       2.128519   -1.139656    2.357208
