19

C      -0.516723    1.341532    0.035481
C       0.074749   -0.052121   -0.011683
O       1.098663   -0.122371   -0.994212
C       1.759838   -1.375424   -0.825467
C       1.593178   -1.767867    0.667169
C       0.821973   -0.550338    1.265786
N       1.671689    0.527321    1.777414
C      -0.111545   -0.963432    2.319030
N      -0.855147   -1.307299    3.134021
H       0.243196    2.085791    0.277146
H      -0.960140    1.585495   -0.933297
H      -1.298871    1.387475    0.798237
H      -0.716872   -0.785956   -0.237458
H       1.308347   -2.133961   -1.479236
H       2.802374   -1.243511   -1.126239
H       1.013700   -2.688233    0.770951
H       2.544485   -1.912146    1.183756
H       2.286347    0.174105    2.504181
H       2.257343    0.858162    1.015564
