16

C      -0.060989    1.291724    0.165334
C       0.110451   -0.149080    0.112929
C       0.232183   -1.349808    0.080402
C       0.406679   -2.782212    0.015056
O      -0.357136   -3.575446    0.516896
C       1.676201   -3.225388   -0.722313
O       1.714730   -4.605059   -0.985772
C       1.903318   -5.426190    0.075529
N       1.925323   -6.672530   -0.103973
H       0.827005    1.814913   -0.203338
H      -0.914662    1.597990   -0.449025
H      -0.254300    1.623329    1.190970
H       1.728887   -2.717126   -1.689255
H       2.544611   -2.888900   -0.133840
H       2.043314   -4.894046    1.024270
H       2.089699   -7.147722    0.780830
