21

C       0.020652    1.565691    0.026752
C       0.062737    0.043201    0.028645
C      -1.176058   -0.545083   -0.419175
C      -2.217894   -1.015956   -0.795409
C       1.309770   -0.769304   -0.332772
C       2.673494   -0.091288   -0.365572
C       2.911797    0.504596    1.050667
C       1.833281   -0.111634    1.985906
C       0.802813   -0.781571    1.085982
H       0.953933    2.015603    0.364218
H      -0.186893    1.936620   -0.981879
H      -0.781208    1.922257    0.680877
H      -3.135419   -1.434342   -1.126851
H       1.149191   -1.616539   -0.989506
H       3.426909   -0.852417   -0.595593
H       2.753861    0.671363   -1.147681
H       3.920424    0.281205    1.409130
H       2.834800    1.594463    1.032585
H       2.274527   -0.880302    2.629580
H       1.395677    0.638495    2.653438
H       0.267083   -1.637884    1.479189
