15

C      -0.223940    1.553147    0.006444
C       0.103940    0.062563   -0.016213
C       0.926410   -0.436210   -1.226346
N       1.797556   -1.461026   -0.663834
C       1.914203   -1.477027    0.696698
O       2.639772   -2.168259    1.371303
C       0.911806   -0.407734    1.190467
O       0.813814   -0.026432    2.323885
H       0.687157    2.156316   -0.060536
H      -0.877880    1.828930   -0.825974
H      -0.724654    1.807574    0.943711
H      -0.830455   -0.515481    0.023150
H       0.295276   -0.851471   -2.018101
H       1.510055    0.385745   -1.662709
H       2.404171   -2.030648   -1.233468
