18

C       0.512669    1.073415   -0.322265
O       0.481241   -0.325201   -0.064784
C       0.519320   -0.657396    1.287707
C       0.457678   -2.181444    1.424456
C       1.930865   -2.585128    1.339152
N       2.334622   -2.896704   -0.036308
C       2.646261   -1.334911    1.878045
O       3.785728   -1.222700    2.222685
O       1.777532   -0.273445    1.869397
H       1.448723    1.522871    0.025479
H       0.425010    1.196532   -1.402962
H      -0.330677    1.579903    0.168084
H      -0.249156   -0.107793    1.845481
H       0.039848   -2.442138    2.399794
H      -0.152554   -2.629554    0.640202
H       2.178962   -3.438417    1.974235
H       2.081142   -2.118139   -0.640180
H       3.346904   -2.985317   -0.075579
