22

C      -0.114422    1.546836    0.022670
C       0.022531    0.017473   -0.005415
C       0.795951   -0.469925    1.240223
C      -1.375007   -0.640873   -0.035484
C       0.781695   -0.405382   -1.240978
N       1.253113    0.350471   -2.146403
C       1.903240   -0.519543   -3.135926
C       1.697331   -1.956909   -2.590303
O       0.962668   -1.755897   -1.366107
H       0.865249    2.030501    0.034103
H      -0.650641    1.911119   -0.856855
H      -0.665113    1.851025    0.918912
H       0.250267   -0.193340    2.148006
H       0.920419   -1.555356    1.228471
H       1.788724   -0.011301    1.290021
H      -1.948156   -0.305345   -0.905730
H      -1.298007   -1.730037   -0.075370
H      -1.934728   -0.365618    0.864122
H       1.445447   -0.374720   -4.120378
H       2.961683   -0.254052   -3.230292
H       1.101543   -2.595036   -3.249571
H       2.631712   -2.473248   -2.351283
