18

C      -0.038899    1.491627    0.060139
C       0.013068   -0.036332   -0.016995
C       0.729185   -0.526725   -1.266405
O       0.730442   -1.946195   -1.255647
C       1.375442   -2.493332   -2.379582
C       1.342698   -3.948083   -2.307865
C       1.329406   -5.154398   -2.272689
C       1.312829   -6.519116   -2.230199
N       1.300169   -7.680081   -2.196549
H       0.966590    1.926114    0.078880
H      -0.569175    1.918174   -0.798348
H      -0.557663    1.818594    0.965385
H       0.526066   -0.445841    0.860266
H      -0.999941   -0.453747   -0.011294
H       0.223679   -0.155677   -2.174374
H       1.765121   -0.147662   -1.294047
H       0.890347   -2.169698   -3.317597
H       2.427043   -2.161039   -2.439916
