12

O       0.034610    1.321784    0.007806
C      -0.049295   -0.007407    0.000992
C      -1.238330   -0.668935    0.003775
C      -1.147494   -2.078430   -0.004346
F      -2.291634   -2.749307   -0.001779
C       0.028215   -2.767544   -0.014419
C       1.274075   -2.070889   -0.017489
O       2.399879   -2.471025   -0.025517
O       1.126377   -0.615769   -0.008665
H       0.971654    1.562046    0.004074
H      -2.181745   -0.146831    0.011698
H       0.052249   -3.847421   -0.020318
