12

N       0.023788    1.383427    0.136935
C       0.026127    0.032446    0.043599
N      -1.076330   -0.693381    0.018064
O      -0.637354   -2.042206   -0.021850
C       0.678689   -2.087330   -0.024761
C       1.181606   -0.821114    0.011438
N       2.552742   -0.445209   -0.009540
O       3.393299   -1.335849   -0.007153
O       2.802941    0.763555   -0.035258
H       0.895505    1.841791   -0.076701
H      -0.837089    1.862931   -0.068893
H       1.155019   -3.054332   -0.057373
