13

N       0.077794    1.483227    0.008757
C       0.039015    0.212574    0.002112
N      -1.118077   -0.547679    0.008842
C      -2.439697   -0.128035    0.024538
O      -2.831908    1.006232    0.035122
C       1.267021   -0.693156   -0.014580
O       1.160450   -1.902158   -0.020390
C       2.550187   -0.026738   -0.022922
C       3.635681    0.493607   -0.030141
H       1.050668    1.795627    0.001303
H      -0.943766   -1.545322    0.001552
H      -3.112146   -1.009397    0.026015
H       4.597373    0.948726   -0.036126
