21

C      -0.771583    1.116811   -0.533448
C       0.496030    0.282517   -0.609921
O       0.125565   -1.047018   -0.948253
C       1.169948   -1.993147   -0.915897
C       2.011529   -2.047610   -2.183624
O       2.866937   -0.915615   -2.235051
C       3.655710   -0.845532   -3.406624
C       4.670890   -1.899214   -3.501185
C       5.499223   -2.767273   -3.571724
H      -1.289762    1.117945   -1.496939
H      -1.454273    0.713689    0.220195
H      -0.530759    2.151053   -0.269137
H       1.192046    0.691237   -1.352918
H       1.019786    0.286049    0.360642
H       1.832116   -1.824350   -0.052075
H       0.692815   -2.972269   -0.789827
H       2.606017   -2.974139   -2.186422
H       1.347814   -2.064814   -3.063060
H       3.018391   -0.873370   -4.305873
H       4.142990    0.134902   -3.382404
H       6.236255   -3.529251   -3.637532
