24

C       0.393074    1.572915    0.078075
C      -0.139267    0.144151   -0.089894
C       0.493822   -0.569438   -1.268113
C       1.815438   -1.295532   -1.134403
C       0.552448   -2.074787   -1.438043
C      -0.016202   -2.983644   -0.362478
C       0.389652   -2.598586   -2.861552
C       1.136441   -3.907170   -3.150484
H       1.475849    1.571187    0.241664
H       0.195807    2.175458   -0.815576
H      -0.077256    2.075682    0.929089
H       0.039948   -0.414939    0.835075
H      -1.229437    0.175773   -0.220252
H       0.366479   -0.024782   -2.202934
H       2.559804   -1.180754   -1.916308
H       2.236458   -1.384830   -0.136835
H       0.111987   -2.567734    0.639515
H      -1.088690   -3.155287   -0.516684
H       0.477902   -3.961034   -0.369932
H      -0.680113   -2.735874   -3.073247
H       0.740553   -1.829849   -3.560973
H       1.031537   -4.190345   -4.202622
H       2.205582   -3.805686   -2.935134
H       0.753811   -4.737572   -2.549224
