12

C       0.006956    1.378379   -0.028026
O       0.021555   -0.047868   -0.033354
C       0.620173   -0.612810   -1.080743
N       1.178093    0.064278   -2.075522
N       1.632799   -0.953607   -2.862685
C       1.329929   -2.140870   -2.310167
N       0.684190   -1.969624   -1.173273
H       1.025639    1.779358   -0.028005
H      -0.522235    1.766801   -0.904155
H      -0.512768    1.667134    0.885957
H       2.116429   -0.744887   -3.719497
H       1.592107   -3.087569   -2.758552
