19

C      -0.045884    1.565672    0.162668
C       0.050908    0.072265    0.071066
C       0.560213   -0.716499   -1.146075
C       1.310039   -1.636633   -0.150025
O       2.172116   -2.459765   -0.292788
C       0.762460   -0.939815    1.053936
C       1.453001   -0.799972    2.379271
C      -0.758526   -0.866817    0.905616
O      -1.375243   -0.362144    2.054266
H       0.909778    2.044353   -0.075558
H      -0.791271    1.953662   -0.542981
H      -0.340182    1.873484    1.169413
H      -0.193844   -1.176122   -1.794471
H       1.275478   -0.165551   -1.764907
H       1.634692   -1.790048    2.811100
H       2.423604   -0.306264    2.269393
H       0.841977   -0.230175    3.081287
H      -1.300746   -1.692047    0.436853
H      -2.188347    0.078985    1.786304
