16

C      -0.114472    1.506923    0.039130
C      -0.039232    0.012080    0.006829
C      -0.073080   -0.791857   -1.104691
N       0.023436   -2.116087   -0.691731
C       0.117059   -2.144811    0.664222
O       0.222931   -3.313239    1.332473
C       0.083213   -0.858635    1.146009
N       0.165083   -0.600922    2.548923
H       0.776946    1.953005    0.498514
H      -0.204431    1.919169   -0.969983
H      -0.976835    1.862159    0.617738
H      -0.156862   -0.546438   -2.150656
H       0.025698   -2.927470   -1.283287
H       0.272676   -3.053543    2.264923
H      -0.654170   -0.108224    2.893038
H       0.968441   -0.024572    2.782980
