17

N       0.044701    1.466300    0.397287
C       0.047111    0.192779    0.191641
C      -1.347813   -0.385300    0.159924
O      -1.659171   -1.537080   -0.012253
N       1.135454   -0.613324    0.013521
C       2.504806   -0.066635    0.041470
C       3.427082   -1.292221   -0.197228
C       2.448962   -2.434893   -0.338594
C       1.195099   -2.001165   -0.213224
H       0.984076    1.861672    0.419597
H      -2.089571    0.419205    0.322574
H       2.614859    0.697210   -0.736761
H       2.691745    0.415330    1.007898
H       4.043945   -1.160562   -1.093423
H       4.120527   -1.440280    0.638367
H       2.734480   -3.460927   -0.516830
H       0.268997   -2.548717   -0.260817
