18

C      -0.141533    1.444490   -0.142031
N       0.042722    0.008706    0.012699
C       1.388434   -0.510451   -0.153938
C       0.754270   -0.481228    1.205167
C       1.268047    0.390889    2.347867
C       1.086435   -0.485362    3.604745
O       1.438408   -0.190942    4.722496
C       0.405536   -1.727037    3.171772
C       0.216968   -1.710389    1.845266
H       0.720394    2.047591    0.184270
H      -0.325008    1.658244   -1.199492
H      -1.021680    1.762818    0.425297
H       1.481088   -1.443348   -0.705089
H       2.198229    0.200243   -0.320386
H       2.314330    0.690428    2.251717
H       0.679231    1.305294    2.475471
H       0.122308   -2.507850    3.865350
H      -0.267521   -2.478052    1.252403
