16

C      -0.047900    1.498599    0.072818
C      -0.015497    0.012965   -0.050787
C      -0.042800   -0.795171   -1.141562
C       0.010516   -2.177109   -0.729797
C       0.070329   -2.186047    0.627122
O       0.134175   -3.202357    1.491263
N       0.055986   -0.844997    1.078780
C       0.104459   -0.478121    2.394833
O       0.165369   -1.268376    3.321879
H       0.848556    1.907491    0.556652
H      -0.103142    1.931697   -0.928632
H      -0.917899    1.862473    0.634613
H      -0.096528   -0.446668   -2.162480
H       0.004963   -3.049214   -1.362334
H       0.163907   -2.818925    2.391443
H       0.083527    0.610680    2.548955
