13

O      -0.067702   -0.038716   -0.091692
C      -0.054965    1.136788   -0.076762
C      -1.017386    2.393610    0.094261
O       0.030357    2.914409    0.951215
C       1.000474    2.381138   -0.006326
C       0.593499    3.055796   -1.301205
C      -0.749751    3.065316   -1.230869
C       2.360484    2.283775    0.420206
C       3.506591    2.156690    0.757913
H      -2.005409    2.359898    0.543576
H       1.263477    3.352595   -2.093423
H      -1.481816    3.370410   -1.963140
H       4.518118    2.048893    1.063942
