17

C       0.097495   -1.168859    0.041704
C      -0.015605    0.030844   -0.002385
C      -0.078381    1.435120   -0.062888
C      -1.133803    2.265504   -0.034709
C      -0.547160    3.666636    0.026932
C       0.011849    3.863121    1.476183
C       1.243035    2.911181    1.438978
C       1.145251    2.369560   -0.022378
O       0.664144    3.515319   -0.724624
H       0.177200   -2.226774    0.081427
H      -2.180141    2.007890    0.050166
H      -1.149778    4.482461   -0.369363
H       0.315695    4.902459    1.620398
H      -0.718116    3.605680    2.246239
H       2.175762    3.464227    1.568657
H       1.207172    2.114135    2.184215
H       2.064697    1.991663   -0.465253
