19

O       0.149368    1.359271   -0.266101
C       0.071169   -0.031783   -0.034749
C       0.732062   -0.499801    1.297669
C      -0.392550   -0.976650    2.227069
C      -1.284203    0.125503    2.895027
C      -2.399219   -0.154267    1.867795
O      -2.218741    0.583513    0.632004
C      -1.409032   -0.486000    0.055699
C      -1.601052   -1.360080    1.310608
H      -0.647211    1.731570    0.140177
H       0.562948   -0.517748   -0.884542
H       1.413703   -1.333529    1.094109
H       1.329409    0.310806    1.724267
H      -0.060242   -1.743378    2.928537
H      -1.585317   -0.149215    3.910300
H      -0.898459    1.148690    2.905307
H      -3.443508   -0.152136    2.185304
H      -1.833835   -0.813806   -0.896853
H      -1.960569   -2.383255    1.231517
