18

O      -0.077867    1.447884   -0.024977
C       0.000048    0.030981    0.009186
C      -1.428286   -0.504360    0.071947
C      -1.449816   -2.037888    0.076484
C      -0.728597   -2.623418   -1.154288
C       0.672604   -2.046233   -1.299485
O       1.654865   -2.733901   -1.451411
C       0.741521   -0.524682   -1.223686
H       0.818592    1.798775   -0.033317
H       0.536774   -0.297308    0.915561
H      -1.920211   -0.105980    0.964603
H      -1.979747   -0.117959   -0.795093
H      -0.964410   -2.409905    0.987975
H      -2.481608   -2.401212    0.105211
H      -0.654527   -3.712290   -1.110362
H      -1.293848   -2.360008   -2.059714
H       0.253470   -0.107982   -2.115409
H       1.792743   -0.221551   -1.235643
