15

C      -0.017119    1.536995    0.010054
C      -0.015750   -0.003219    0.002509
C      -1.416696   -0.544659    0.012841
N      -1.997879   -0.758386    1.202203
C      -3.247298   -1.212042    1.142302
N      -3.942706   -1.461769    0.031888
C      -3.266074   -1.206693   -1.088828
N      -2.017762   -0.752759   -1.167572
H       1.007587    1.918304    0.002658
H      -0.534857    1.928639   -0.870494
H      -0.518853    1.919904    0.903605
H       0.491366   -0.368373   -0.894451
H       0.507787   -0.376858    0.886476
H      -3.748554   -1.399877    2.089878
H      -3.783199   -1.389939   -2.028744
