18

C       0.089762    1.476700   -0.042217
C       0.037208   -0.044469   -0.000746
N       1.027133   -0.728630   -0.895536
C       1.473409   -1.643292    0.184763
C       2.770531   -1.162502    0.874342
N       1.968171   -0.168262    1.646413
C       0.702495   -0.787458    1.222127
C      -1.327207   -0.545899   -0.205830
N      -2.390087   -0.970245   -0.376892
H       1.096714    1.790429    0.237182
H      -0.139103    1.838545   -1.048460
H      -0.633022    1.912106    0.654679
H       0.615116   -1.183867   -1.701761
H       1.326333   -2.710353    0.017338
H       3.230126   -1.941900    1.495397
H       3.527006   -0.717383    0.221331
H       2.125741   -0.163460    2.645674
H       0.034642   -1.163342    1.997433
