12

O      -0.071638    0.017045    0.002663
C      -0.028992    1.216818    0.008185
C       1.327872    1.963424   -0.002114
O       2.370723    1.348982   -0.016501
C       1.279964    3.434273    0.006455
C       2.338551    4.294190   -0.000111
O       1.855456    5.556776    0.012065
C       0.501934    5.408233    0.025656
N       0.101342    4.184623    0.023140
H      -0.934486    1.852123    0.020570
H       3.406993    4.168193   -0.012211
H      -0.082965    6.314096    0.036904
