21

C      -0.454568    1.056331    0.028055
O       0.359892   -0.075292   -0.236146
C       0.889362   -0.634548    0.939098
C       0.163643   -1.680303    1.736359
C      -0.616794   -2.614002    0.799287
O      -1.734020   -2.102443    0.112931
C       0.691191   -2.909538   -0.006197
C       1.476562   -2.000764    0.948732
C       2.862751   -2.297175    1.447651
H       0.110352    1.841196    0.551200
H      -0.787991    1.445122   -0.937056
H      -1.329565    0.786914    0.635651
H       1.433506    0.093881    1.543841
H       0.000290   -1.578199    2.804184
H      -0.967963   -3.503632    1.327351
H      -1.395566   -1.389465   -0.441309
H       0.996933   -3.957068    0.055857
H       0.680330   -2.603780   -1.055952
H       3.599134   -2.203756    0.640132
H       3.158200   -1.609870    2.247020
H       2.931554   -3.317875    1.840636
