19

C       0.045962    1.464248    0.095924
C       1.359096    0.739057   -0.057695
C       1.741712    0.074406    1.271763
C       0.413300   -0.733036    1.225366
O       0.694253   -2.106534    0.989522
C      -0.254376   -2.700237    0.138232
O      -0.249534   -2.150414   -1.151594
C      -0.698888   -0.796100   -1.135644
C       0.031416   -0.021797   -0.081245
H      -0.231035    1.914916    1.047505
H      -0.275357    2.034785   -0.771201
H       2.033988    0.955647   -0.877105
H       2.587062   -0.610712    1.197830
H       1.884785    0.746013    2.123952
H      -0.282148   -0.631619    2.072408
H       0.028874   -3.749755    0.038927
H      -1.267150   -2.619451    0.578930
H      -0.531340   -0.392314   -2.138828
H      -1.785290   -0.776101   -0.937868
