14

O       0.005435   -0.045881    0.029090
C      -0.018034    1.151973   -0.011634
N      -1.113593    1.974435   -0.030810
C      -0.822003    3.392764   -0.002237
C       0.705942    3.380767    0.007710
C       1.416188    2.761160    1.169188
C       0.696849    2.476023    2.385488
N       0.127481    2.281054    3.372987
N       1.174876    1.996303   -0.084683
H      -2.031155    1.588760    0.119884
H      -1.187677    3.905461   -0.899242
H      -1.249311    3.889225    0.877538
H       1.234735    4.119850   -0.584172
H       2.463631    3.000860    1.325536
