23

O       0.195642    1.361689   -0.322817
C       0.024118   -0.016534   -0.112562
C       0.349805   -0.659540    1.260649
C      -0.786882   -1.681973    0.971287
C      -1.679740   -2.232511    2.083951
C      -2.684157   -1.205786    2.629026
C      -3.442804   -0.516552    1.486965
C      -2.467934    0.255491    0.586857
C      -1.399383   -0.657042   -0.039619
H      -0.260851    1.833542    0.380777
H       0.605601   -0.501049   -0.902660
H       1.360695   -1.039012    1.428675
H       0.092282    0.017183    2.083260
H      -0.357682   -2.520419    0.412509
H      -2.247286   -3.082698    1.681393
H      -1.061558   -2.635478    2.895906
H      -3.382368   -1.703184    3.311186
H      -2.164511   -0.442561    3.224670
H      -3.981709   -1.269984    0.895579
H      -4.199775    0.166298    1.888738
H      -3.003037    0.790723   -0.204280
H      -1.999710    1.032682    1.208339
H      -1.781075   -1.082323   -0.972711
