19

C      -0.052232    1.538274   -0.011611
C      -0.004418    0.018723    0.007072
C       1.331521   -0.693448   -0.191249
C       0.684553   -0.719097    1.158917
N       1.263427    0.076481    2.198430
C       0.634955   -0.011063    3.515919
C       1.953093   -0.653899    3.262147
C      -1.167037   -0.635314   -0.539553
N      -2.106074   -1.156161   -0.971458
H       0.820214    1.939317    0.505419
H      -0.064515    1.910258   -1.040164
H      -0.949855    1.905720    0.494233
H       1.348459   -1.603103   -0.779076
H       2.190891   -0.043280   -0.308987
H       0.213329   -1.657867    1.460186
H       0.572876    0.921872    4.067742
H      -0.227901   -0.665251    3.624344
H       1.975403   -1.740152    3.200792
H       2.869787   -0.198076    3.624018
