14

O      -0.124133    0.189952    0.370205
C      -0.003983    1.315003    0.023367
O      -0.967352    2.177874   -0.435260
C      -0.011681    3.261450   -0.648079
C       0.074600    4.196846    0.569422
C       1.170302    3.282845    1.196410
C       1.128347    2.358346   -0.078455
C       2.355434    2.009535   -0.740898
N       3.347040    1.748970   -1.275392
H      -0.058278    3.639038   -1.666919
H       0.445868    5.191181    0.314317
H      -0.862130    4.293720    1.119663
H       2.137603    3.772444    1.306399
H       0.923148    2.770877    2.126826
