16

N       0.034681   -1.142400   -0.009383
C      -0.013895    0.014488    0.027125
C      -0.031570    1.435006    0.070038
C      -1.133626    2.198915    0.044547
C      -0.808342    3.665030    0.078437
C       0.704498    3.682397    0.329520
C       1.534764    4.883911    0.224853
O       1.146692    4.368131    1.502432
C       1.240043    2.260831    0.125816
H      -2.144885    1.814849   -0.008862
H      -1.078743    4.150476   -0.869168
H      -1.334716    4.204156    0.873945
H       2.593301    4.791067   -0.016098
H       1.079779    5.833717   -0.054915
H       1.898678    1.975888    0.951885
H       1.815116    2.159440   -0.802491
