15

C      -0.021127    1.519903    0.076380
C       0.008180    0.034326   -0.047559
C      -0.003318   -0.813641   -1.138463
N      -0.042428   -0.834437   -2.536295
C      -0.022137   -2.092252   -2.811598
O       0.027856   -2.978232   -1.751554
C       0.039958   -2.141847   -0.668094
C       0.079099   -2.157195    0.699255
N       0.058210   -0.809697    1.044954
H       0.873899    1.913242    0.574481
H      -0.068241    1.963350   -0.920325
H      -0.893852    1.872511    0.640122
H      -0.039526   -2.552650   -3.788048
H       0.117508   -2.932374    1.443452
H       0.077666   -0.484455    1.996340
