18

C      -0.001441    1.550589   -0.000634
C      -0.012455    0.010639    0.066135
C       0.660779   -0.476658    1.268917
C       1.213866   -0.868501    2.261459
C      -1.444079   -0.547948   -0.051555
C      -1.583937   -2.091488    0.046801
N      -2.469949   -2.326593    1.199910
C      -2.746272   -1.179970    1.656565
O      -2.252688   -0.068812    1.054646
H       1.021396    1.930932    0.049799
H      -0.453778    1.893016   -0.936839
H      -0.569794    1.968789    0.832822
H       0.529646   -0.376443   -0.809212
H       1.701942   -1.218289    3.137462
H      -1.890703   -0.148578   -0.968483
H      -2.022332   -2.527955   -0.855783
H      -0.619377   -2.579927    0.221306
H      -3.371650   -0.977097    2.518735
