17

C       0.022442   -1.151621   -0.032472
C       0.012902    0.051108   -0.005117
C      -0.004744    1.482030    0.008184
C      -0.687131    2.444086    1.050001
C      -0.031244    3.400699    0.003325
C       1.216229    2.467305    0.045811
C      -0.578835    2.444554   -1.063222
C      -0.701978    2.414451   -2.509856
O      -1.857127    2.418232   -1.623558
H       0.028350   -2.213258   -0.053157
H      -1.777109    2.418993    1.084796
H      -0.240884    2.443421    2.047085
H      -0.045397    4.488552   -0.001079
H       1.777797    2.467933    0.981900
H       1.873291    2.463633   -0.826706
H      -0.572436    3.323572   -3.094546
H      -0.547837    1.482235   -3.050238
