14

O      -0.175143    1.561449    0.136100
C       0.088939    0.179087    0.219203
C      -1.163321   -0.648164   -0.072415
N      -1.651414   -0.280315   -1.401079
C      -2.294213   -1.090413   -2.088421
O      -2.674736   -2.384549   -1.804112
N      -3.364557   -2.858239   -2.921903
N      -3.418443   -1.978410   -3.784666
O      -2.777284   -0.829719   -3.349206
H      -0.608724    1.698070   -0.715611
H       0.891043   -0.124635   -0.473173
H       0.433438   -0.024161    1.238497
H      -0.948141   -1.721533    0.014387
H      -1.935183   -0.394201    0.664651
