13

O      -0.364852    0.120703    0.473592
C       0.329810    0.647745   -0.356154
C       1.211441    1.820785   -0.041287
N       2.304399    2.090862   -0.984677
C       1.208237    3.037890   -0.962903
C       0.345781    3.094826   -2.120278
N      -0.361950    3.158905   -3.031396
C       1.460698    2.149748    1.404816
O       2.359352    2.886270    1.733844
H       0.378006    0.307075   -1.409384
H       3.081120    2.480093   -0.445663
H       1.349489    3.986829   -0.451085
H       0.782443    1.665979    2.127307
