19

C       0.010762    1.491135   -0.063287
C      -0.031687   -0.014897    0.019029
C      -0.838944   -0.722593    1.056158
C       0.694188   -0.741110    1.145149
C       1.476588   -1.975178    0.846201
O       2.275970   -2.432899    1.633111
C       1.273110   -2.550852   -0.548191
C       1.116234   -1.400844   -1.551569
O      -0.034833   -0.629982   -1.247618
H       0.936740    1.828707   -0.540111
H      -0.831636    1.858332   -0.657857
H      -0.046758    1.940858    0.931971
H      -1.353729   -0.149793    1.819371
H      -1.339185   -1.633055    0.747677
H       1.125207   -0.143927    1.941490
H       2.123735   -3.195836   -0.783251
H       0.362747   -3.162396   -0.573805
H       2.020760   -0.773037   -1.554444
H       0.965989   -1.778359   -2.566446
