16

C       0.083707   -1.175158   -0.007644
C      -0.011042    0.026821   -0.006053
C      -0.067435    1.431138   -0.010756
C      -1.106197    2.285610    0.001511
C      -0.440160    3.636467    0.015515
C       0.807957    3.594080   -0.925108
C       1.521697    4.462196    0.115358
N       0.753133    3.492728    1.018962
C       1.127829    2.379052   -0.004246
H       0.151747   -2.234681   -0.003386
H      -2.164989    2.075480    0.027384
H      -1.034376    4.544197    0.121513
H       0.829678    3.640041   -2.021061
H       2.607732    4.373059    0.205492
H       1.204405    5.503057    0.224700
H       2.135687    1.973209    0.080405
