19

C      -0.096514    1.541974   -0.076061
C       0.017406    0.031948    0.069271
O      -1.228166   -0.405345    0.756358
C      -0.438721   -0.459564    2.008177
C       0.811856   -0.694698    1.128958
C       2.104510   -0.213796    0.346748
C       1.134157   -0.595681   -0.904606
C       0.978043   -2.084617   -0.682830
C       0.752448   -2.155874    0.626781
H       0.760721    1.994190   -0.580361
H      -0.982671    1.733244   -0.691784
H      -0.253066    2.051068    0.879691
H      -0.499481    0.490731    2.548745
H      -0.760125   -1.285401    2.648644
H       2.346996    0.846630    0.434573
H       2.999702   -0.832101    0.436751
H       1.328527   -0.206206   -1.905763
H       1.023070   -2.858024   -1.435424
H       0.560895   -3.006002    1.267370
