14

C      -0.028155    1.529304    0.028651
C      -0.006102    0.026905   -0.015078
C      -0.035481   -0.714190   -1.195843
C      -0.011743   -2.105702   -1.144348
N       0.038755   -2.803390   -0.007461
C       0.067388   -2.108498    1.131425
C       0.046473   -0.722270    1.157524
F       0.077364   -0.085330    2.335250
H       0.863177    1.921093    0.529649
H      -0.071779    1.949636   -0.978288
H      -0.892065    1.893476    0.594299
H      -0.076841   -0.204802   -2.153406
H      -0.034558   -2.685915   -2.063153
H       0.108572   -2.661099    2.066510
