19

C       0.051085    1.575048   -0.003019
C       0.007860    0.047720    0.058699
C      -1.429964   -0.503697   -0.023360
O      -2.097016   -0.073717   -1.209931
C      -1.449519   -1.963782    0.108636
C      -1.439631   -3.165666    0.176565
C      -1.435225   -4.626748    0.276609
C      -2.773281   -5.217576    0.343954
C      -3.864663   -5.714235    0.398767
H       1.082692    1.938799    0.003652
H      -0.438855    1.936852   -0.910339
H      -0.465726    2.019248    0.855046
H       0.589002   -0.386804   -0.764974
H       0.464909   -0.316725    0.986034
H      -2.017015   -0.063479    0.793302
H      -1.747621   -0.596885   -1.939973
H      -0.893856   -5.052316   -0.579730
H      -0.861044   -4.927452    1.164042
H      -4.833257   -6.146664    0.447347
