14

C       0.118565    1.511050    0.036943
C      -0.037471    0.035143    0.037515
C      -1.136274   -0.765595   -0.062317
N      -2.486588   -0.380581   -0.221516
C      -0.576414   -2.076901   -0.005311
O      -1.299228   -3.207979   -0.089446
N       0.725698   -2.076091    0.117214
O       1.074248   -0.718824    0.164090
H       0.930816    1.814375   -0.630454
H      -0.813846    1.967598   -0.303637
H       0.349901    1.896734    1.036479
H      -2.923575   -0.147860    0.664579
H      -3.024501   -1.136370   -0.630921
H      -0.684480   -3.953147   -0.062657
