18

C      -0.097019    1.149470   -1.667426
O       0.232403    0.444132   -0.488413
C       1.002185   -0.724687   -0.705322
C       1.526335   -1.170558    0.655846
C       0.177309   -1.813119   -1.383382
N       0.614608   -2.235099   -2.517527
O      -0.177987   -3.232297   -3.064717
C      -1.005817   -2.280381   -0.744608
C      -1.998606   -2.654182   -0.175573
H       0.804956    1.458255   -2.217652
H      -0.727874    0.558701   -2.345505
H      -0.647932    2.041093   -1.359390
H       1.841537   -0.510084   -1.383623
H       2.163462   -2.052956    0.550858
H       2.108195   -0.362194    1.105571
H       0.694354   -1.413534    1.321866
H       0.279004   -3.431046   -3.890016
H      -2.878191   -2.986895    0.318485
