17

C       0.088621    1.481535   -0.178367
C      -0.008720   -0.029862    0.048483
C      -1.444417   -0.535568    0.133695
C      -2.295639   -0.515318   -1.179537
C      -2.677975   -1.976114   -0.893396
O      -3.505426   -2.718476   -1.335672
C      -1.653182   -2.080072    0.246951
H       1.131233    1.807497   -0.241600
H      -0.409331    1.777034   -1.108287
H      -0.384804    2.035104    0.640063
H       0.507623   -0.559937   -0.764034
H       0.521036   -0.298277    0.971700
H      -1.974305   -0.016641    0.939180
H      -3.125126    0.191955   -1.257081
H      -1.683818   -0.431214   -2.085941
H      -0.770203   -2.655597   -0.055831
H      -2.023640   -2.488038    1.190921
