14

C      -0.012733    1.373268    0.006422
O       0.025608   -0.061602   -0.035477
C       0.631841   -0.584881   -1.097567
O       1.135561    0.042400   -1.998539
C       0.625555   -2.129534   -1.059597
O       0.123312   -2.746423   -0.161821
C       1.312141   -2.752504   -2.261084
O       1.259100   -4.148151   -2.143722
H       1.000996    1.781285    0.018890
H      -0.541148    1.766121   -0.865706
H      -0.541414    1.626912    0.924199
H       0.810406   -2.368100   -3.164722
H       2.339524   -2.353433   -2.298284
H       1.695828   -4.526811   -2.911982
