21

C      -0.465332    1.478731   -0.114345
C       0.082336    0.059089   -0.067931
C       1.544294   -0.203001   -0.488092
O       1.795933   -0.974811    0.708486
C       0.526216   -0.584433    1.278149
C       0.713734    0.307011    2.489449
C       1.716908   -0.213877    3.546866
C       2.546250    1.026131    3.164014
O       1.544545    1.462060    2.218878
H       0.191229    2.176126    0.409770
H      -0.567866    1.811413   -1.153307
H      -1.459878    1.533243    0.342351
H      -0.596893   -0.617983   -0.594428
H       1.703625   -0.795917   -1.395877
H       2.168776    0.698042   -0.522877
H      -0.058860   -1.462599    1.590412
H      -0.268100    0.606665    2.883176
H       1.344408   -0.233830    4.571617
H       2.177028   -1.170323    3.298194
H       2.699589    1.765606    3.958958
H       3.502014    0.817846    2.671210
