14

N      -0.171763    1.162438   -0.524093
C      -0.052998    0.039862    0.020232
O       1.116405   -0.628355    0.296223
C       0.818682   -1.825589    0.969010
C       0.142795   -1.704180    2.305902
C      -0.685944   -1.889483    1.042109
O      -1.126189   -0.681929    0.443831
C      -1.501411   -3.032650    0.794486
C      -2.178737   -4.007547    0.609374
H       0.741175    1.542043   -0.760818
H       1.460672   -2.652464    0.697221
H       0.207680   -2.561294    2.965981
H       0.106828   -0.732097    2.785582
H      -2.781815   -4.864830    0.436751
