19

O       0.415560    1.552083   -1.482247
C       0.309279    1.872158   -0.316357
N       1.222059    1.595174    0.651384
C       2.475605    0.914903    0.363033
C       3.605603    1.874069   -0.031701
C       4.907728    1.124970   -0.341528
N       6.003323    2.009446   -0.708399
C       6.835526    2.554139    0.217451
O       6.786449    2.333199    1.409844
H      -0.565774    2.421591    0.084481
H       1.068439    1.968052    1.574473
H       2.761128    0.328570    1.243144
H       2.275407    0.217165   -0.455202
H       3.286605    2.449854   -0.907572
H       3.794788    2.585130    0.780117
H       5.235303    0.565383    0.539348
H       4.752994    0.409538   -1.156501
H       6.086644    2.314839   -1.664711
H       7.586750    3.225257   -0.244641
