13

N       0.018048   -1.165856    0.098671
C      -0.000384   -0.011235    0.126667
C       0.000005    1.448756    0.155372
C       1.388712    2.027385   -0.209794
C       1.396617    3.514914   -0.132296
N       1.635113    4.323346   -1.125011
O       1.537536    5.561545   -0.590492
N       1.225904    5.445973    0.761004
N       1.141869    4.222377    1.032234
H      -0.757979    1.817125   -0.544107
H      -0.292900    1.786311    1.154875
H       2.136813    1.628990    0.482579
H       1.674587    1.725351   -1.219028
