16

O      -0.093559   -0.047443    0.418429
C      -0.026102    1.152640    0.257912
N       1.131875    1.846274    0.054408
C       1.231211    3.291028   -0.202101
C       2.767084    3.582210   -0.115813
C       3.365435    2.179110   -0.162765
C       2.404444    1.266379   -0.033209
C       3.234884    4.479848   -1.165874
C       3.618747    5.218265   -2.032753
H      -0.909051    1.820536    0.266011
H       0.860508    3.528338   -1.204373
H       0.656424    3.862508    0.529301
H       3.002420    4.043577    0.854659
H       4.424244    1.988923   -0.246838
H       2.467891    0.190153    0.023215
H       3.961776    5.869657   -2.798182
