19

O       0.022793    1.430778   -0.157540
C      -0.024806    0.043554    0.016753
C      -0.443143   -0.623036    1.315369
C      -1.223727    0.174630    2.368176
C      -2.631637    0.422090    1.802809
C      -2.822086    1.373807    0.649152
C      -2.665109   -0.106845    0.384775
C      -1.314591   -0.735838    0.076669
O      -1.352509   -1.954191   -0.610539
H       0.748653    1.767764    0.379366
H       0.760244   -0.495619   -0.516856
H       0.159168   -1.463215    1.645041
H      -1.293357   -0.421939    3.282626
H      -0.719542    1.109747    2.642082
H      -3.469897    0.268123    2.473885
H      -3.820889    1.779709    0.520849
H      -2.019290    2.039283    0.369029
H      -3.509648   -0.672581    0.008253
H      -1.477300   -1.761037   -1.546528
