16

O      -0.013145   -0.015348   -0.262865
C       0.012924    1.179822   -0.033624
N      -1.146267    1.913880    0.146639
C      -1.170473    3.372181    0.010000
C       0.016995    3.972667    0.791488
C       1.288294    3.216396    0.525699
C       1.275008    1.940373    0.136895
C      -1.177982    3.805823   -1.395849
C      -1.206519    4.154240   -2.545686
H      -1.975428    1.416658   -0.149241
H      -2.097702    3.725665    0.475084
H       0.124728    5.027735    0.525600
H      -0.209210    3.936511    1.866104
H       2.228858    3.734878    0.691723
H       2.178643    1.369484   -0.040471
H      -1.227365    4.454035   -3.564540
