13

N       0.018601    1.384642    0.149086
C      -0.049910    0.023484    0.048798
C      -1.226813   -0.694586    0.027867
C      -1.072944   -2.092110   -0.017947
F      -2.201855   -2.791874   -0.039200
N       0.023848   -2.777340   -0.048157
C       1.216134   -2.097188   -0.027715
O       2.321840   -2.586816   -0.042741
N       1.114818   -0.668181    0.015852
H       0.851270    1.845355   -0.183393
H      -0.833932    1.891062   -0.029014
H      -2.197935   -0.224201    0.043335
H       2.006134   -0.195523    0.068061
