17

C      -0.069802    1.558276    0.028397
C       0.083958    0.056747   -0.031696
C       0.570055   -0.730209   -1.185003
C       1.669258   -0.012521   -1.978511
C       2.414827    0.096455   -0.610901
N       1.358158   -0.676881    0.124358
C       2.391792   -0.916204   -2.941888
O       2.640988   -0.641578   -4.087221
H       0.604323    2.092857   -0.643674
H      -1.093101    1.832070   -0.247772
H       0.107558    1.921480    1.046503
H      -0.684301   -0.467194    0.535112
H       0.075512   -1.638851   -1.516700
H       1.391844    0.908970   -2.495776
H       3.352538   -0.463580   -0.586199
H       2.599232    1.105751   -0.233789
H       2.700297   -1.894036   -2.502375
