14

C      -0.004862    1.507021    0.028012
N       0.078363    0.060618    0.008002
C       0.023295   -0.762563   -1.106289
O      -0.106622   -0.158341   -2.315550
C       0.123976   -2.045254   -0.661464
N       0.240184   -2.046809    0.731817
C       0.204917   -0.793564    1.067674
O       0.281756   -0.282094    2.313520
H       0.314547    1.856415    1.009910
H       0.649492    1.928948   -0.738377
H      -1.027807    1.850384   -0.158245
H      -0.085403   -0.837542   -2.996426
H       0.123466   -2.960313   -1.231762
H       0.386730   -1.039657    2.902424
