14

O      -0.607448    0.781565    0.945180
C       0.344436    0.765952    0.211079
C       1.269465    1.964102   -0.002609
C       1.462319    2.834012    1.251876
C       2.755329    2.264272    1.844089
C       3.460045    1.614437    0.658376
O       4.591062    1.246358    0.564693
O       2.566761    1.478909   -0.374877
H       0.624771   -0.128331   -0.386022
H       0.874420    2.530774   -0.854608
H       1.589587    3.881306    0.968862
H       0.593714    2.752951    1.906481
H       3.410693    3.000467    2.310316
H       2.561603    1.481673    2.586389
