15

O       0.298307    0.402693   -1.124156
C       0.127055    1.310965   -0.370616
C      -1.124914    1.919062    0.313003
C      -0.250569    3.114052    0.789172
C       0.370092    2.943062    2.205779
N       1.373016    2.011957    1.633657
C       1.036095    2.403625    0.236495
C       0.934049    4.181509    2.746228
N       1.406463    5.150222    3.165362
H      -1.907457    2.184711   -0.403352
H      -1.570324    1.301838    1.097980
H      -0.563909    4.110202    0.491044
H      -0.275059    2.487608    2.965958
H       2.332939    2.158738    1.919332
H       1.822039    2.869544   -0.360834
