17

C       0.107136    1.536499    0.120143
C      -0.065257    0.046739    0.064960
C      -1.214158   -0.661215   -0.043765
C      -2.594910   -0.089201   -0.134655
C      -1.100917   -2.119564   -0.075819
N      -2.138444   -2.865116   -0.177251
N       0.197526   -2.708566    0.008495
N       1.238677   -2.005618    0.108703
N       1.120551   -0.663805    0.136944
H       0.735029    1.885014   -0.708499
H      -0.847535    2.055223    0.060678
H       0.598436    1.835482    1.053734
H      -3.077042   -0.430978   -1.056566
H      -3.211939   -0.480511    0.681025
H      -2.615085    1.000960   -0.105082
H      -1.838316   -3.842549   -0.181233
H       2.007355   -0.193029    0.218592
