23

C      -0.227250    1.422716   -0.077918
C       0.042938   -0.072477    0.068363
C       1.139220   -0.631070   -0.890383
C       2.148840   -0.569074    0.271760
C       0.962530   -0.450141    1.270688
O       2.991267   -1.691374    0.359659
C       3.933959   -1.634960    1.417859
C       4.863417   -2.824835    1.234396
O       5.507538   -2.783161   -0.022770
H       0.700505    2.005885   -0.052155
H      -0.727962    1.641565   -1.027469
H      -0.869010    1.787993    0.731365
H      -0.904279   -0.617248    0.036241
H       0.953089   -1.672252   -1.166522
H       1.368295   -0.056917   -1.791860
H       2.754415    0.349239    0.252222
H       1.046938    0.273524    2.086036
H       0.715227   -1.432084    1.683992
H       4.508439   -0.696364    1.362570
H       3.434570   -1.676710    2.398593
H       5.643329   -2.808456    2.002894
H       4.284278   -3.753928    1.360441
H       4.807327   -2.609834   -0.663553
