20

C      -0.303678    1.409136   -0.380458
N      -0.043445   -0.005023   -0.111836
C       1.318995   -0.562267   -0.275554
C       2.510980    0.256435   -0.596705
O       2.703347    1.404648   -0.257467
C       0.640345   -0.393735    1.073343
C       1.157620    0.446495    2.251361
C       1.076550   -0.839043    3.127734
C       0.238535   -1.536272    2.015536
H       0.504996    2.083264   -0.082530
H      -0.484781    1.531732   -1.452200
H      -1.221560    1.682318    0.149675
H       1.329234   -1.554153   -0.724210
H       3.272794   -0.288571   -1.198680
H       2.127294    0.931393    2.135874
H       0.427460    1.204653    2.552069
H       2.054442   -1.305856    3.266322
H       0.599126   -0.734792    4.103404
H      -0.836385   -1.518981    2.219360
H       0.523412   -2.549924    1.724560
