18

O      -0.253972    1.636121    0.190536
C      -0.219188    0.237218    0.129992
C       0.229642   -0.594244    1.381272
C      -1.063310   -1.409116    1.280909
C      -2.246207   -0.521773    1.384870
O      -2.180607    0.615264    2.230149
C      -3.160768    1.532365    2.070954
N      -3.010310    2.687746    2.553340
C      -1.539374   -0.553625    0.068712
H      -0.704090    1.891634    1.004593
H       0.404029   -0.008943   -0.733174
H       1.130692   -1.181699    1.196217
H       0.354788   -0.026280    2.306036
H      -1.145248   -2.478174    1.433253
H      -3.213377   -1.019280    1.416606
H      -4.032516    1.155033    1.520654
H      -3.840061    3.252171    2.383221
H      -2.049849   -0.852956   -0.839899
