23

C      -0.025996    1.379991   -0.239039
C      -0.057344   -0.137505   -0.167528
O      -1.391786   -0.553074    0.033180
C      -1.539839   -1.954697    0.101075
C      -3.019269   -2.298294    0.260895
C      -3.844235   -1.830994   -0.972941
C      -4.076405   -3.104079   -1.749007
C      -3.736449   -4.187619   -1.054131
C      -3.209376   -3.841713    0.318291
H       0.997467    1.734325   -0.394483
H      -0.646982    1.737734   -1.065335
H      -0.407741    1.815666    0.688695
H       0.342453   -0.577287   -1.097455
H       0.582142   -0.498859    0.656257
H      -1.141978   -2.428437   -0.814226
H      -0.964593   -2.358492    0.952119
H      -3.373012   -1.815858    1.176107
H      -4.798830   -1.376830   -0.674137
H      -3.309020   -1.062875   -1.541041
H      -4.498753   -3.109687   -2.748206
H      -3.840329   -5.211704   -1.395993
H      -2.272826   -4.363827    0.555481
H      -3.922837   -4.135900    1.099994
