16

C      -0.010302    1.532711    0.001779
C       0.033868    0.028447   -0.006527
C       0.315740   -0.786079    1.210467
N       1.324261   -0.684287    0.134209
C       1.276068   -1.813340   -0.746309
N       2.225336   -2.642939   -0.828076
N       0.052263   -1.773582   -1.428891
C      -0.747323   -0.695089   -1.078127
O      -1.806500   -0.395094   -1.569476
H       0.604846    1.931781    0.811145
H       0.356710    1.938859   -0.945330
H      -1.042004    1.868758    0.137712
H       0.587831   -0.272102    2.126984
H      -0.192325   -1.737086    1.344086
H       2.019215   -3.386023   -1.495157
H      -0.236611   -2.455827   -2.113358
