21

C       0.021958    1.556361   -0.047590
C       0.025549    0.024037   -0.053886
C       0.719217   -0.565486   -1.261975
C       0.827702   -2.085210   -1.452073
C       1.588976   -1.889230   -2.777161
C       0.589080   -0.979379   -3.512354
O       0.067085   -0.143432   -2.461499
C       2.728447   -0.980406   -2.283400
O       2.084246   -0.144380   -1.302762
H       1.043632    1.943709   -0.051267
H      -0.490114    1.943739   -0.931660
H      -0.488931    1.935012    0.842478
H       0.530101   -0.359128    0.839402
H      -1.000282   -0.359123   -0.039235
H       1.413282   -2.573131   -0.670059
H      -0.143182   -2.572393   -1.564132
H       1.905104   -2.774880   -3.328208
H       1.064021   -0.356878   -4.280081
H      -0.231306   -1.543018   -3.975378
H       3.541282   -1.544845   -1.808190
H       3.152860   -0.357907   -3.080174
