25

C       0.501992    1.335764    0.550902
C       0.445486   -0.153966    0.236743
C       1.075463   -0.712167   -1.085511
C       2.153775    0.147572   -1.747211
C       1.559518   -1.952205   -0.264541
C       2.924874   -2.555026   -0.531142
O       3.114378   -3.611776    0.406148
C       1.297314   -1.174207    1.066114
C       2.528517   -0.631665    1.790006
H       1.521943    1.730778    0.536358
H      -0.084720    1.911900   -0.173753
H       0.085027    1.539472    1.543621
H      -0.602902   -0.470910    0.274820
H       0.331762   -0.962187   -1.849780
H       2.944603    0.450711   -1.055252
H       2.629119   -0.390276   -2.575018
H       1.716014    1.061806   -2.162059
H       0.827420   -2.761411   -0.356785
H       2.965675   -2.933534   -1.566056
H       3.717302   -1.799332   -0.431157
H       3.995143   -3.974720    0.274057
H       0.707930   -1.745862    1.789429
H       3.164654   -0.012802    1.149712
H       2.237388   -0.017209    2.648605
H       3.137613   -1.462903    2.158137
