19

C       0.624823    1.448792   -0.185756
C      -0.085513    0.111387    0.049101
C       0.113033   -0.907025   -1.108292
C       1.273208   -1.770452   -0.641812
C       1.763316   -2.993285   -1.310823
N       2.599997   -1.781834   -1.300559
C       1.322366   -1.641098    0.869325
O       1.977926   -2.302887    1.641832
N       0.461604   -0.622265    1.186063
H       1.686427    1.290473   -0.401613
H       0.172222    1.983045   -1.027772
H       0.551383    2.091243    0.697792
H      -1.153377    0.296904    0.210616
H      -0.790143   -1.515156   -1.222616
H       0.301907   -0.406901   -2.062437
H       2.140117   -3.801652   -0.691163
H       1.281532   -3.293444   -2.238229
H       2.518728   -1.308644   -2.198839
H       0.428427   -0.267668    2.129432
