19

C       0.063290    1.579504   -0.218565
C       0.025941    0.073326   -0.062800
C       1.309049   -0.742756    0.007154
O       2.531499   -0.069139    0.122805
C       0.412054   -0.619207    1.223984
N       0.807012    0.140769    2.379815
C       1.798435   -0.569723    3.191496
C       2.160526    0.213396    4.376282
N       2.465342    0.837650    5.299047
H       1.013043    2.001507    0.121187
H      -0.056062    1.857471   -1.271061
H      -0.743333    2.059398    0.344498
H      -0.791795   -0.404690   -0.595708
H       1.355681   -1.691867   -0.525818
H       2.770347    0.286438   -0.739859
H      -0.166375   -1.500479    1.491812
H       1.196511    1.032601    2.099001
H       1.361073   -1.517838    3.528006
H       2.720864   -0.816486    2.642982
