14

C      -0.029000    1.368430    0.051939
N       0.170313   -0.067033    0.088235
C       0.597717   -0.614691   -0.951816
O       0.791756   -1.979829   -0.930726
C       1.248272   -2.575433   -2.036998
N       1.449370   -3.886508   -2.060923
N       1.886325   -4.027035   -3.309655
N       1.956714   -2.914895   -4.012271
N       1.548076   -1.962018   -3.207454
H       0.578059    1.835030    0.834965
H       0.224112    1.833655   -0.912931
H      -1.075872    1.591441    0.283649
H       0.846460   -0.144314   -1.905746
H       2.146337   -4.923345   -3.693597
