14

N      -0.095978    1.344910    0.009501
C       0.032589    0.069661    0.001027
N      -1.165170   -0.649725    0.003552
C      -1.504505   -1.982258   -0.001349
O      -2.674566   -2.317280    0.003782
C      -0.468523   -3.072362   -0.012464
N       0.805265   -3.068470   -0.020169
C       1.615131   -1.937455   -0.019867
C       1.319928   -0.625438   -0.011097
H       0.814318    1.800502    0.006685
H      -1.976631   -0.041060    0.011649
H      -0.969035   -4.041705   -0.013926
H       2.670271   -2.198771   -0.028164
H       2.166652    0.055135   -0.013031
