20

O      -0.078175    1.471929   -0.035605
C      -0.019636    0.072148    0.020053
C      -1.443352   -0.520556    0.044047
C      -1.542580   -1.951913    0.584207
C      -0.826084   -3.024061   -0.247619
C       0.686983   -2.805487   -0.381562
N       1.064258   -1.736001   -1.300015
C       0.800954   -0.412441   -1.186082
O       1.186741    0.402252   -2.015302
H       0.387670    1.701296   -0.859725
H       0.503384   -0.240458    0.941343
H      -2.031796    0.145211    0.683000
H      -1.878343   -0.452784   -0.960990
H      -1.140018   -1.973819    1.606965
H      -2.600798   -2.222534    0.670742
H      -0.983688   -4.001223    0.224616
H      -1.261742   -3.083060   -1.252768
H       1.124820   -2.625194    0.610266
H       1.156105   -3.714802   -0.765794
H       1.598438   -1.977410   -2.121240
