11

O       0.088469    0.055794    0.737054
C       0.015462    1.040227    0.047335
O      -1.066702    1.244998   -0.741448
N      -1.672255    2.714044   -0.908762
N      -0.988772    3.492545   -1.491218
C       0.366897    3.222505   -2.038566
O       0.549018    3.410994   -3.200141
C       1.363783    2.895776   -1.003607
C       1.171270    1.978560   -0.050597
H       2.305882    3.427686   -1.094741
H       1.955403    1.765762    0.667953
