17

C      -0.017238    1.517919    0.014671
C      -0.004088    0.008158   -0.003342
C      -0.014577   -0.690939   -1.213948
C       0.027207   -2.082303   -1.212421
C       0.077392   -2.793744   -0.020184
C       0.086028   -2.110059    1.202756
N       0.193879   -2.807648    2.409461
C       0.041576   -0.709918    1.190919
H       1.001843    1.923286   -0.015453
H      -0.551570    1.922168   -0.850064
H      -0.492977    1.905685    0.920439
H      -0.058023   -0.146751   -2.151798
H       0.014107   -2.623341   -2.153551
H       0.109212   -3.879326   -0.028906
H      -0.150171   -3.756552    2.377393
H      -0.169730   -2.315485    3.212849
H       0.045974   -0.174020    2.137224
