18

C       0.012194    1.488490   -0.345669
C      -0.071231    0.039124    0.060185
O       1.136934   -0.729354    0.028635
C       0.495464   -0.533748    1.295208
C       1.249651    0.238229    2.339596
C       0.499296    0.507867    3.666786
O       1.460657   -0.249136    4.425308
C       2.210180   -0.580054    3.238200
H       0.876006    1.989055    0.095692
H       0.098496    1.567527   -1.434347
H      -0.895708    2.021899   -0.043605
H      -0.928370   -0.491371   -0.361276
H       0.013181   -1.435995    1.682554
H       1.716532    1.122502    1.906495
H       0.452722    1.556548    3.984226
H      -0.508713    0.075238    3.729922
H       2.222184   -1.660728    3.045371
H       3.243005   -0.216240    3.288026
