14

O      -0.119554    1.339820    0.107402
N       0.026034   -0.039476   -0.073574
C      -1.091448   -0.630931   -0.077471
C      -2.552023   -0.283991    0.093155
O      -3.232135   -0.899357   -1.023599
C      -2.897675   -1.726256    0.090470
C      -1.425193   -2.109964   -0.105613
C      -0.801797   -3.263059   -0.747879
O      -0.751913   -3.070158    0.677679
H       0.794212    1.645963    0.102721
H      -3.021151    0.562753    0.573533
H      -3.682203   -2.262955    0.608561
H      -1.421604   -4.091277   -1.086963
H       0.147102   -3.133181   -1.263964
