18

C      -0.101036    1.572877    0.028671
C       0.090832    0.045946    0.037301
C       0.775428   -0.466203   -1.201352
C       2.053379   -0.918626   -1.182190
N       2.683340   -1.379537   -2.311479
C       2.032901   -1.405412   -3.512660
C       0.752433   -0.978922   -3.617628
C       0.012747   -0.471886   -2.465062
O      -1.153228   -0.082770   -2.530827
H       0.862574    2.091470   -0.014801
H      -0.695436    1.868657   -0.838034
H      -0.622091    1.900354    0.933859
H       0.657194   -0.255720    0.926406
H      -0.895900   -0.426329    0.098521
H       2.650990   -0.944864   -0.277421
H       3.632039   -1.707096   -2.250039
H       2.606968   -1.784933   -4.349782
H       0.243490   -1.005731   -4.573197
