22

C       0.028737    1.598213   -0.087682
C      -0.015199    0.098023    0.077608
N       1.258559   -0.633784   -0.093119
C       0.604561   -0.611759    1.225744
C       1.323534    0.092373    2.376219
C       1.422157   -1.025731    3.420513
O       0.245087   -1.800759    3.232586
C       0.031483   -1.914095    1.830443
C      -1.442208   -2.200660    1.592291
H       0.948834    2.012127    0.331587
H      -0.009217    1.870640   -1.147817
H      -0.824160    2.071152    0.411844
H      -0.902119   -0.369508   -0.347211
H       1.089221   -1.529102   -0.549135
H       2.293347    0.485646    2.066229
H       0.717607    0.918102    2.763715
H       2.322192   -1.639502    3.251380
H       1.431586   -0.676717    4.455841
H       0.633508   -2.757255    1.441433
H      -2.058073   -1.360135    1.923998
H      -1.641343   -2.386995    0.532303
H      -1.740058   -3.091661    2.152058
