20

C       0.179664    1.569154    0.068594
C      -0.067301    0.093199   -0.039824
C      -1.015061   -0.642180    0.817976
N       0.430454   -0.898448    1.020258
C       0.947550   -1.768702   -0.104447
C       0.085947   -2.884141   -0.764228
O      -0.815481   -3.552167    0.087457
C      -0.453535   -1.846995   -1.814559
C       0.482950   -0.773088   -1.194017
H       1.218291    1.818554   -0.175574
H      -0.469975    2.124071   -0.619551
H      -0.022798    1.920750    1.084566
H      -1.435248   -0.086767    1.652672
H      -1.651903   -1.435881    0.450080
H       1.992624   -2.015126    0.083979
H       0.757392   -3.603330   -1.255370
H      -1.234218   -4.259791   -0.412769
H      -0.217876   -2.108578   -2.849330
H      -1.522743   -1.631603   -1.742945
H       1.185708   -0.265784   -1.853643
