16

O       0.139685    1.364784   -0.166339
C       0.054461   -0.026432   -0.182253
C      -1.369022   -0.486576    0.110406
O      -2.240817    0.340574    0.311745
C      -1.604115   -1.902507    0.130947
C      -1.775077   -3.100225    0.149594
C      -2.010010   -4.509498    0.152263
C      -2.928961   -5.089272    1.188141
N      -3.353801   -5.031865   -0.204862
H      -0.761428    1.671488    0.027011
H       0.352679   -0.442585   -1.158757
H       0.722325   -0.483918    0.566059
H      -1.194573   -5.126468   -0.214148
H      -2.710660   -6.084181    1.564656
H      -3.365812   -4.403215    1.907245
H      -3.989173   -4.249354   -0.344797
