19

C      -0.175974    1.387894    0.483638
O      -0.057847    0.096813   -0.100065
C      -1.258783   -0.586933   -0.189100
C      -1.837828   -1.281660    1.042152
C      -1.291871   -2.075082   -0.128548
O      -2.190969   -2.600470   -1.070181
C      -3.017420   -1.532692   -1.526991
C      -2.255838   -0.205455   -1.275895
O      -3.113220    0.889406   -0.999572
H       0.827509    1.818468    0.497850
H      -0.844757    2.034442   -0.096235
H      -0.554354    1.325243    1.514130
H      -1.214607   -1.259494    1.929403
H      -2.906217   -1.275042    1.236610
H      -0.401993   -2.680216   -0.006814
H      -3.246221   -1.705870   -2.581299
H      -3.970110   -1.506104   -0.975624
H      -1.683560    0.096142   -2.158780
H      -3.518032    0.733576   -0.138506
