20

O       0.012297    0.015123    0.406039
C      -0.002472    1.187334    0.094428
C      -1.317853    1.938993   -0.099697
C      -1.232143    3.149336   -1.041342
C       0.018424    3.979702   -0.725487
N       1.252068    3.198522   -0.835278
C       1.256106    2.008897   -0.010879
C       2.069725    2.078283    1.286300
C       2.569735    1.283838    0.120947
H      -2.081552    1.216662   -0.400106
H      -1.599431    2.287695    0.905308
H      -1.177162    2.809151   -2.084074
H      -2.139827    3.758723   -0.957540
H       0.095110    4.840552   -1.397472
H      -0.042732    4.375316    0.297168
H       1.385861    2.927708   -1.806007
H       2.532836    3.037085    1.487796
H       1.687130    1.540135    2.145879
H       2.510527    0.203894    0.180202
H       3.395707    1.691333   -0.450197
