20

C       0.052756    1.613180   -0.010256
C       0.066191    0.081092    0.001490
C       0.765213   -0.583249   -1.187891
C       2.222860   -0.426924   -1.424367
N       1.722729   -1.613606   -0.717535
C       1.716560   -1.562062    0.742787
C       2.167343   -0.334523    1.524868
C       0.706631   -0.570104    1.242092
O      -0.146435   -0.896429    2.298828
H       1.066408    2.025538    0.005551
H      -0.448590    1.996398   -0.904601
H      -0.483023    2.005554    0.861287
H      -0.971631   -0.272106    0.006191
H       0.134522   -0.872199   -2.025200
H       2.623468   -0.634059   -2.413264
H       2.780837    0.326230   -0.878388
H       1.834722   -2.527570    1.220682
H       2.485556   -0.542093    2.541795
H       2.705087    0.479081    1.053116
H      -0.201701   -0.134497    2.885417
