18

C       0.412251    1.448816   -0.285916
C       0.044358   -0.000364    0.014778
O       0.349805   -0.866322   -1.079034
C       1.338737   -1.790617   -0.703395
C       2.669924   -1.542422   -1.414884
O       3.263332   -0.319985   -1.033142
O       1.535000   -1.658243    0.708859
C       0.823475   -0.588205    1.172734
N       0.816115   -0.163890    2.358303
H       1.469705    1.514434   -0.551548
H      -0.186203    1.820489   -1.121761
H       0.215871    2.064589    0.595649
H      -1.028686   -0.080642    0.227731
H       0.983018   -2.811072   -0.905166
H       3.334423   -2.399687   -1.227910
H       2.477518   -1.487623   -2.490277
H       3.501613   -0.396881   -0.102795
H       1.420444   -0.725710    2.958923
