18

C       0.110160    1.535616    0.009057
C      -0.047793    0.017141    0.002407
C      -1.499039   -0.445305    0.013763
O      -2.423508    0.336174    0.027187
C      -1.726417   -1.952265    0.007873
C      -3.216261   -2.330323    0.020260
C      -3.422010   -3.772985    0.014426
C      -3.565437   -4.966473    0.009714
H       1.167671    1.813577    0.000554
H      -0.372733    1.981915   -0.863856
H      -0.356116    1.972473    0.895671
H       0.439576   -0.429449   -0.875428
H       0.456144   -0.438777    0.865982
H      -1.228277   -2.380739   -0.871010
H      -1.211404   -2.390100    0.872304
H      -3.694301   -1.883247    0.898829
H      -3.711176   -1.873885   -0.844028
H      -3.710318   -6.018134    0.005905
