20

C      -0.162553    1.479013   -0.073203
C       0.054423   -0.006177   -0.064256
C      -0.713322   -0.992428   -0.953839
C      -0.903121   -1.855529    0.313415
N      -0.156503   -0.871455    1.188335
C       1.192355   -0.656160    0.620909
C       2.154063   -1.672380    0.079914
C       2.379418   -2.982127    0.708012
O       1.706988   -2.871565   -0.551533
H       0.290224    1.932775   -0.963304
H      -1.231143    1.720337   -0.082817
H       0.282913    1.946175    0.809976
H      -1.647904   -0.573243   -1.333094
H      -0.158031   -1.432220   -1.784618
H      -1.938577   -1.890411    0.658636
H      -0.490901   -2.863127    0.296726
H       1.739594    0.030394    1.270018
H       3.008271   -1.211308   -0.422495
H       3.364825   -3.442753    0.669364
H       1.749771   -3.281493    1.543892
