20

C      -0.015017    1.580800    0.021142
C       0.033795    0.049870   -0.003023
C       0.704879   -0.503624   -1.277417
N       0.769373   -1.965614   -1.331473
C       1.457776   -2.543016   -0.169171
C       0.853296   -2.052818    1.143621
O       0.483984   -2.784682    2.033760
C       0.738202   -0.523853    1.238814
O       2.059669    0.022514    1.283402
H       0.994131    1.999919    0.032405
H      -0.539244    1.965594   -0.859560
H      -0.540514    1.945167    0.910002
H      -0.995268   -0.338248    0.022423
H       0.166755   -0.150133   -2.163300
H       1.728241   -0.115866   -1.344852
H      -0.173023   -2.343720   -1.377403
H       1.407711   -3.633797   -0.202715
H       2.511826   -2.241684   -0.210118
H       0.179117   -0.276060    2.151399
H       2.460412   -0.237752    2.119160
