21

C      -0.068825    1.525808   -0.232561
C       0.169249    0.019460   -0.101450
C       0.475555   -0.404103    1.335811
N       0.627042   -1.856505    1.414548
C       1.959425   -2.424326    1.222195
C       1.305852   -2.457940    2.560146
C       1.854531   -1.670156    3.734436
O       2.871439   -0.768060    3.320113
H       0.807071    2.097921    0.093717
H      -0.280931    1.806261   -1.268804
H      -0.919187    1.848829    0.378870
H      -0.706876   -0.537534   -0.452600
H       1.004769   -0.281574   -0.746149
H       1.359438    0.134900    1.707125
H      -0.368485   -0.126663    1.982045
H       2.014306   -3.321429    0.610398
H       2.795524   -1.737455    1.115291
H       0.840346   -3.388020    2.886218
H       1.030302   -1.131591    4.229634
H       2.250456   -2.394196    4.464552
H       3.077088   -0.189726    4.060595
