15

N       0.001685    1.322352    0.008412
C      -0.035983   -0.015607    0.001051
N      -1.218905   -0.587992    0.004639
C      -1.495346   -1.901420   -0.000704
C      -0.683789   -3.012498   -0.010739
C       0.725571   -3.036453   -0.018594
C       1.616234   -1.996779   -0.018471
C       1.374545   -0.581946   -0.010194
O       2.295841    0.238601   -0.011468
H       0.917650    1.748928    0.004823
H      -0.855814    1.846780    0.015642
H      -2.567763   -2.098645    0.004015
H      -1.190391   -3.972454   -0.012833
H       1.170521   -4.029566   -0.025932
H       2.676397   -2.232480   -0.025555
