21

O      -0.070638    1.373950    0.092758
C       0.048953   -0.045395   -0.025659
C       0.201061   -0.475334   -1.521583
C      -1.343736   -0.644438   -1.587818
C      -1.388249   -0.633065   -0.032265
C      -1.457051   -2.016255    0.619522
C      -0.794361   -2.025918    2.005732
C       0.601581   -1.453537    1.945785
C       0.987841   -0.590246    1.007080
H       0.807747    1.752522   -0.026096
H       0.652607    0.270023   -2.181548
H       0.737618   -1.421435   -1.632191
H      -1.835586    0.226907   -2.023979
H      -1.721266   -1.544979   -2.078896
H      -2.114844    0.045957    0.422524
H      -2.498646   -2.351164    0.682604
H      -0.933165   -2.744131   -0.013485
H      -1.400219   -1.452664    2.723251
H      -0.759803   -3.048617    2.399275
H       1.308736   -1.778840    2.705410
H       2.012314   -0.218050    0.987627
