23

C       0.727176    1.460729    0.202235
C       0.103341    0.090554    0.024082
C       0.447184   -0.716034   -1.246297
C       0.980699   -1.792090   -0.265669
C       0.117414   -3.047417   -0.177049
C       2.476437   -2.085789   -0.379572
C       3.069980   -2.785599    0.838391
O       4.478737   -2.837638    0.649856
O       0.713568   -0.913215    0.871139
H       1.799742    1.432836   -0.013568
H       0.254493    2.186837   -0.468790
H       0.593745    1.810003    1.231140
H      -0.976755    0.146049    0.221510
H      -0.395929   -1.017738   -1.870321
H       1.215645   -0.258781   -1.874074
H       0.277082   -3.692575   -1.048163
H       0.351202   -3.622077    0.723718
H      -0.942622   -2.780100   -0.136967
H       2.664730   -2.687180   -1.277845
H       3.013822   -1.140135   -0.508283
H       2.803532   -2.216631    1.740780
H       2.653695   -3.798861    0.946157
H       4.868614   -3.237976    1.432282
