17

N       0.009506   -1.157826    0.005667
C       0.014785   -0.004215   -0.059530
C       0.061270    1.456012   -0.137967
C       1.478200    1.982563   -0.065825
N       2.489165    1.742799   -1.143802
C       3.197819    2.575303   -0.115336
C       1.939858    3.464501    0.129950
C       2.040353    3.313167    1.661983
C       2.495477    1.937863    1.132210
H      -0.399198    1.777118   -1.079158
H      -0.535796    1.875285    0.680116
H       2.821677    0.774332   -1.104334
H       4.233551    2.898328   -0.216389
H       1.628216    4.313316   -0.478422
H       2.800985    3.920103    2.160477
H       1.103493    3.343501    2.226505
H       2.813677    1.046449    1.675140
