17

N       0.082814    1.195015    0.662069
C      -0.018688    0.085072    0.090798
C      -1.158511   -0.849615   -0.247015
C      -0.045564   -1.719123   -0.856624
O       0.952368   -0.728236   -0.469846
C       0.281808   -3.210080   -0.637595
C      -0.790607   -3.529687   -1.709915
C       0.061781   -2.356453   -2.256766
N       1.282927   -3.139363   -1.785904
H       1.054483    1.508325    0.695197
H      -1.676375   -1.270551    0.616714
H      -1.889301   -0.444909   -0.949547
H       0.498730   -3.734625    0.293083
H      -0.637075   -4.474813   -2.229047
H      -1.835667   -3.334171   -1.464826
H       0.019445   -1.875158   -3.233970
H       2.024627   -2.477928   -1.537984
