19

C       0.040437    1.605973   -0.024959
C       0.065315    0.078511    0.024948
C       0.769692   -0.606111   -1.167055
C       1.279824   -1.942092   -0.587010
N       1.521588   -1.752834    0.861002
C       2.302236   -0.558774    1.179082
C       0.807770   -0.507409    1.234445
C       0.131318   -0.473345    2.507858
N      -0.430502   -0.400161    3.515936
H       1.054896    2.015691   -0.075601
H      -0.509102    1.956112   -0.904082
H      -0.447979    2.021457    0.861749
H      -0.967116   -0.287503    0.084909
H       0.093784   -0.753545   -2.012594
H       1.596436    0.014332   -1.527974
H       0.520538   -2.724845   -0.681157
H       2.193629   -2.304349   -1.066744
H       2.863029   -0.618137    2.106107
H       2.794436   -0.010716    0.379758
