19

C       0.058966    1.552502   -0.078436
C      -0.006982    0.023280    0.078107
C      -1.416091   -0.517354    0.045297
C      -2.100119   -0.858220    1.209431
N      -3.352082   -1.320517    1.258474
C      -4.011110   -1.462374    0.104616
N      -5.327435   -1.884088    0.196058
C      -3.423571   -1.157522   -1.136194
C      -2.123622   -0.687921   -1.151836
H       1.094928    1.906106   -0.057059
H      -0.387272    1.870083   -1.026508
H      -0.488997    2.051034    0.727369
H       0.586345   -0.444578   -0.717459
H       0.467504   -0.263151    1.023830
H      -1.600042   -0.760855    2.172535
H      -5.547424   -2.310430    1.084349
H      -5.697356   -2.381122   -0.599140
H      -3.983745   -1.289929   -2.056044
H      -1.647876   -0.453024   -2.100515
