13

N      -0.169534    1.348938    0.004226
C      -0.060672    0.103728    0.115501
C      -1.190218   -0.849053   -0.146967
O      -1.249035   -1.883934    0.833028
C      -0.096080   -2.542057    1.080403
N      -0.123372   -3.680359    1.621499
C       1.213777   -1.827639    0.770241
O       2.277410   -2.359541    0.878348
O       1.147860   -0.503561    0.427645
H       0.722441    1.818014    0.173874
H      -2.134350   -0.310514   -0.099177
H      -1.080199   -1.287237   -1.148983
H       0.835694   -3.998722    1.769548
