16

O      -0.102923    1.436834    0.083505
C      -0.055970    0.052069   -0.160261
C      -1.452072   -0.556389    0.000298
C      -1.618866   -2.094589    0.195413
O      -2.114811   -1.877288    1.546104
C      -1.948835   -0.516963    1.427480
N      -2.067943    0.416761    2.256649
C      -2.619118   -2.760472   -0.717186
O      -3.754248   -3.012491   -0.420354
H      -0.524156    1.562428    0.946854
H       0.310010   -0.083506   -1.183344
H       0.645074   -0.466409    0.515454
H      -2.146380   -0.113452   -0.717858
H      -0.676494   -2.655401    0.208356
H      -2.363129    0.091064    3.177784
H      -2.204527   -2.981842   -1.728096
