23

C      -0.070527    1.578450   -0.043830
C      -0.005638    0.043315   -0.027547
C       0.686204   -0.507218   -1.285083
C       1.006378   -1.997742   -1.137985
C       1.959133   -2.233291    0.041367
C       1.545581   -1.458779    1.272770
C       2.203466   -1.902882    2.551829
O       1.838577   -1.063708    3.631081
C       0.663001   -0.459911    1.229942
H       0.936030    2.011264   -0.033762
H      -0.585540    1.940222   -0.940454
H      -0.606691    1.961938    0.830534
H      -1.045857   -0.322686   -0.024749
H       0.058044   -0.329960   -2.165758
H       1.620427    0.047987   -1.449540
H       0.074744   -2.552718   -0.967522
H       1.444259   -2.394037   -2.060654
H       2.011831   -3.305505    0.276473
H       2.984068   -1.948092   -0.241936
H       1.919949   -2.952455    2.750831
H       3.299125   -1.908170    2.403515
H       2.229723   -1.422171    4.432160
H       0.403680    0.042454    2.157575
