19

C      -0.031931    1.508625    0.044672
C      -0.013390    0.013110   -0.034838
C      -0.088731   -0.711857   -1.155333
C      -0.028127   -2.225789   -1.068170
O       1.146386   -2.728572   -1.695948
C      -0.038128   -2.636860    0.412009
C      -1.062394   -1.856075    1.258600
C       0.076336   -0.806051    1.243403
O       1.044342   -1.888489    1.048473
H       0.883520    1.890013    0.514922
H      -0.123307    1.961866   -0.945870
H      -0.868415    1.865322    0.659877
H      -0.131483   -0.260435   -2.142641
H      -0.867845   -2.688327   -1.600700
H       1.879256   -2.372972   -1.175641
H       0.072196   -3.716753    0.536280
H      -2.019610   -1.580631    0.813294
H      -1.202663   -2.311381    2.240954
H       0.291706   -0.218413    2.138774
