16

N      -0.094415    1.332912    0.146704
C      -0.116837   -0.024367    0.019740
N      -1.151182   -0.764929   -0.059450
C      -0.727274   -2.166772   -0.090025
C       0.784168   -2.162870   -0.430154
C       1.234809   -0.762028    0.039432
O       2.130841   -0.075235   -0.822849
C       1.788322   -0.790940    1.408643
N       2.258667   -0.835871    2.463792
H       0.735313    1.789371   -0.200663
H      -0.965331    1.805919   -0.041302
H      -0.916576   -2.634367    0.885032
H      -1.313605   -2.722905   -0.827750
H       1.346850   -2.978102    0.028048
H       0.935495   -2.191688   -1.513069
H       3.018642   -0.428028   -0.696142
