20

C      -0.039079    1.389321   -0.127087
N      -0.008401   -0.025733    0.156923
C      -1.172433   -0.915278    0.044356
C      -1.226062   -1.468061   -1.405775
C       0.041578   -2.381207   -1.447498
C       0.631744   -2.231025   -0.008476
C      -0.655822   -2.133117    0.832261
C       1.140510   -0.784788    0.058355
O       2.275895   -0.367785   -0.031433
H       0.989403    1.753498   -0.088036
H      -0.449087    1.601454   -1.124649
H      -0.641010    1.926912    0.613811
H      -2.083230   -0.434468    0.403615
H      -2.145081   -2.036119   -1.577224
H      -1.194032   -0.662686   -2.144034
H      -0.224427   -3.425094   -1.635066
H       0.759853   -2.080592   -2.213479
H       1.384231   -2.967701    0.264335
H      -0.479092   -1.908642    1.886467
H      -1.302941   -3.009915    0.740351
