22

C       0.005148    1.555330   -0.065632
C       0.047402    0.018047    0.015494
C       0.705194   -0.577107   -1.245028
C       0.724074   -0.459732    1.273797
C       0.193775   -1.270241    2.198101
C       1.184794   -1.619046    3.253869
N       2.363639   -2.358237    2.705647
C       2.433533   -0.893286    2.898594
C       2.162087   -0.090592    1.632023
H       1.013321    1.978696   -0.134251
H      -0.548711    1.879203   -0.952939
H      -0.481505    1.986027    0.814925
H      -0.988015   -0.344926    0.050675
H       1.736155   -0.225195   -1.359429
H       0.726530   -1.669661   -1.199535
H       0.153066   -0.279784   -2.142910
H      -0.812946   -1.671851    2.168504
H       0.882886   -1.812708    4.277764
H       2.855322   -2.798037    3.482925
H       3.107511   -0.500724    3.652431
H       2.866423   -0.349434    0.832946
H       2.267964    0.986862    1.814376
