21

C       0.056563    1.532721   -0.034697
C      -0.007821   -0.001919    0.068005
C      -1.408816   -0.543937    0.037578
C      -2.147952   -0.934919    1.110185
O      -3.393519   -1.329229    0.734863
C      -3.448791   -1.186964   -0.615875
C      -2.273930   -0.714331   -1.111855
C      -1.946390   -0.476633   -2.558824
C      -1.114443   -1.607043   -3.191161
H       1.093696    1.882792   -0.013633
H      -0.400769    1.891005   -0.962168
H      -0.479306    1.998746    0.797847
H       0.581410   -0.441393   -0.745738
H       0.478244   -0.318460    0.997942
H      -1.937464   -0.988281    2.166426
H      -4.383697   -1.460444   -1.078430
H      -2.879142   -0.361151   -3.122629
H      -1.406866    0.471585   -2.669725
H      -1.654015   -2.557817   -3.142650
H      -0.895298   -1.390501   -4.241744
H      -0.161840   -1.742278   -2.669636
