19

C       0.298864    1.186844    0.542805
C      -0.457580    0.063792   -0.180117
C       0.322961   -0.480198   -1.356340
O       1.587822   -1.128136   -1.103476
C       0.536802   -1.920692   -1.653349
C       0.022146   -3.058634   -0.803426
O       0.875599   -4.185228   -0.906841
C       0.396975    0.403135   -2.573276
O      -0.325326    1.344582   -2.776459
H       1.264429    0.827778    0.910806
H       0.478412    2.033599   -0.125303
H      -0.279197    1.549872    1.397008
H      -0.693366   -0.737749    0.523314
H      -1.406355    0.446152   -0.570721
H       0.703455   -2.206007   -2.695066
H      -0.094780   -2.736482    0.238574
H      -0.956587   -3.381271   -1.174209
H       1.735207   -3.927591   -0.555578
H       1.196884    0.099233   -3.284689
