19

C       1.341617    0.064063   -0.332502
C       0.628342   -1.104103   -0.917912
N      -0.069125   -0.168935   -0.041444
C      -0.386464   -0.646372    1.297913
C      -0.552293    0.517411    2.310498
C      -1.690352    0.052239    3.186151
C      -2.328581   -0.993013    2.662334
C      -1.732884   -1.416091    1.341546
H       2.067163   -0.142072    0.453324
H       1.563589    0.938519   -0.937384
H       0.318766   -1.100188   -1.959054
H       0.879624   -2.086961   -0.521329
H       0.405902   -1.318826    1.674335
H       0.369082    0.722252    2.867358
H      -0.812754    1.442244    1.777749
H      -1.958899    0.552704    4.110100
H      -3.198352   -1.477194    3.092838
H      -2.368444   -1.105574    0.500939
H      -1.598454   -2.500060    1.252535
