18

O       0.044536    0.215805    1.012701
C       0.062952    1.347335    0.571977
N       1.089663    1.879644   -0.124057
C       2.413810    1.330625   -0.411386
C       2.850670    2.750458   -0.869416
C       4.075609    3.475396   -0.282567
C       4.544941    3.563398   -1.747576
O       3.351732    2.883135   -2.202663
C       1.389698    3.225682   -0.616101
H      -0.771470    2.068611    0.695828
H       2.926156    0.918897    0.464518
H       2.423440    0.593429   -1.221177
H       3.859557    4.429727    0.200908
H       4.697350    2.869812    0.378871
H       4.622843    4.571715   -2.168669
H       5.451380    3.000044   -1.994589
H       0.869021    3.494790   -1.542104
H       1.267751    4.025907    0.122889
