18

O      -0.138161   -0.038381   -0.329940
C      -0.028951    1.148914   -0.235424
O      -1.102591    1.982087   -0.194307
C      -0.693957    3.350029   -0.025655
C       0.788494    3.399207   -0.431260
C       1.264843    1.969962   -0.124092
C       1.869807    1.798936    1.258528
C       2.723223    0.627792    1.559068
N       3.314452    1.978033    1.468935
H      -1.340033    3.970028   -0.650250
H      -0.847906    3.632228    1.022123
H       0.877235    3.608225   -1.500961
H       1.342817    4.166786    0.112773
H       1.971121    1.587266   -0.866452
H       1.268733    2.214091    2.066551
H       2.722231    0.193357    2.553924
H       2.902842   -0.080984    0.755573
H       3.785107    2.086252    0.572866
