21

C      -0.339505    1.422380   -0.276807
C       0.020712   -0.030560   -0.034261
O       0.587496   -0.548785   -1.253396
C       0.968593   -1.841770   -1.219267
O       0.851722   -2.541232   -0.238898
C       1.543153   -2.289692   -2.525232
C       1.619923   -1.287688   -3.658790
C       2.636691   -3.341745   -2.390208
C       1.275872   -3.754538   -2.847283
H       0.546186    2.005591   -0.544469
H      -1.068901    1.514678   -1.086552
H      -0.774779    1.853418    0.629702
H       0.751983   -0.144060    0.772204
H      -0.853691   -0.632144    0.233195
H       2.236451   -0.425250   -3.389028
H       2.059374   -1.754297   -4.545530
H       0.628326   -0.913162   -3.929230
H       3.441462   -3.297654   -3.115753
H       2.928578   -3.612217   -1.382758
H       0.657709   -4.301074   -2.145514
H       1.127059   -3.999682   -3.893121
