20

C      -0.483571    1.437215    0.127824
C      -0.058716   -0.023647   -0.002376
C       0.839165   -0.290983   -1.201182
O       1.310020    0.592578   -1.878266
C       1.139417   -1.758406   -1.476639
N       2.172244   -2.047058   -2.482504
C       2.692953   -3.171099   -1.675062
C       2.026428   -2.526199   -0.432979
O       2.861849   -1.704713    0.344575
H       0.390540    2.090261    0.181756
H      -1.072203    1.754155   -0.737636
H      -1.086552    1.586394    1.027774
H       0.510281   -0.348820    0.880244
H      -0.927828   -0.693098   -0.052856
H       0.184428   -2.291809   -1.622826
H       1.857021   -2.250669   -3.423192
H       2.260417   -4.155456   -1.907731
H       3.785040   -3.256163   -1.650249
H       1.510039   -3.189234    0.261277
H       3.346293   -1.127520   -0.259421
