19

O      -0.032432    1.439062   -0.247371
C      -0.077354    0.097853    0.223916
C      -1.475974   -0.428496   -0.027211
C      -1.935902   -0.669038   -1.511132
C      -2.146726   -2.146254   -1.155569
O      -0.884185   -2.651970   -0.698171
C      -1.715020   -1.928635    0.237554
C      -2.014063   -2.626057    1.524606
O      -0.869514   -2.670214    2.367123
H       0.867958    1.761142   -0.147237
H       0.645620   -0.539363   -0.305154
H       0.145693    0.038633    1.300655
H      -2.205080    0.187652    0.507800
H      -2.858874   -0.140595   -1.758127
H      -1.189507   -0.483839   -2.286435
H      -2.839590   -2.867776   -1.574616
H      -2.780343   -2.079151    2.083540
H      -2.400794   -3.633404    1.310320
H      -0.185340   -3.142866    1.879660
