18

C      -0.077045    1.529846    0.024834
C      -0.049888    0.024065   -0.015691
C       0.688460   -0.828800   -1.120786
C      -0.216379   -1.957569   -0.552291
O       0.284736   -2.127015    0.784382
C       0.416235   -0.755503    1.234700
C      -1.248347   -0.848154   -0.384863
N      -2.460195   -0.576762   -0.599258
O      -3.168461   -1.703383   -1.072118
H       0.925351    1.935607    0.198246
H      -0.454444    1.938856   -0.916547
H      -0.729627    1.886853    0.828242
H       0.427254   -0.521595   -2.134794
H       1.765611   -0.975629   -1.003512
H      -0.397618   -2.917263   -1.025419
H       1.458397   -0.547741    1.505022
H      -0.225747   -0.581978    2.105940
H      -4.058671   -1.350085   -1.175200
