18

C       0.143203    1.500709    0.211583
C      -0.078678    0.036914   -0.030796
C       0.202417   -0.622513   -1.447595
C      -1.171176   -1.424911   -1.403043
C      -1.079014   -2.929337   -1.000217
N      -0.289918   -2.904340    0.275720
C      -0.478217   -1.723889    0.692150
O       0.448598   -0.794401    1.117232
C      -1.394361   -0.758386   -0.036205
H       1.213004    1.733824    0.207210
H      -0.338659    2.090515   -0.574131
H      -0.270085    1.798023    1.179099
H       0.192393    0.141152   -2.228630
H       1.121333   -1.205310   -1.526192
H      -1.851001   -1.207512   -2.228525
H      -2.073768   -3.385510   -0.896251
H      -0.511965   -3.529990   -1.718258
H      -2.336762   -0.437906    0.404271
