21

C      -0.249494    1.548587   -0.012741
C       0.049948    0.053005   -0.019825
C       1.182188   -0.513875   -0.941826
C       1.782213   -1.223645    0.276026
O       2.234855   -2.535706    0.278339
C       2.159617   -0.233582    1.337925
O       2.609702    1.073232    1.087961
C       0.709270   -0.614368    1.206014
C      -0.064083   -1.216377    2.346360
H       0.652735    2.130935    0.179050
H      -0.671555    1.860926   -0.974954
H      -0.985269    1.794498    0.761562
H      -0.874183   -0.495670   -0.236196
H       0.810211   -1.214258   -1.692141
H       1.826415    0.227329   -1.425685
H       3.168677   -2.542519    0.040256
H       2.630064   -0.708656    2.201591
H       3.505817    1.020987    0.738943
H      -0.481625   -0.439245    2.997804
H      -0.897501   -1.825397    1.978366
H       0.571168   -1.860774    2.961970
