21

C      -0.150698    1.345311    0.124736
O       0.140606   -0.020108   -0.044377
C       0.603896   -0.630954    1.140875
C       0.846952   -2.108652    0.857084
C       1.383628   -2.844069    2.070170
O       0.487744   -2.812140    3.228096
C       0.604659   -4.229951    3.369488
C       0.018899   -4.934366    2.189682
C       1.426656   -4.372731    2.111141
H       0.739472    1.920633    0.427041
H      -0.506324    1.726928   -0.835685
H      -0.933252    1.506632    0.883390
H       1.535431   -0.145977    1.483895
H      -0.134852   -0.521643    1.950670
H      -0.088194   -2.564000    0.516932
H       1.572513   -2.202936    0.039580
H       2.351657   -2.421985    2.374250
H       0.711296   -4.634095    4.369285
H      -0.018308   -6.017101    2.262206
H      -0.805931   -4.481550    1.647719
H       2.293506   -4.983153    1.898550
