19

C      -0.003246    1.534213    0.131029
C      -0.050727    0.040765   -0.003948
C      -0.868801   -0.836118    0.862341
N       0.597727   -0.907399    1.001688
C       1.051733   -1.760863   -0.153605
C       0.519514   -0.740624   -1.193455
C      -0.444673   -1.187678   -2.304352
C       0.207886   -2.049176   -3.288965
N       0.746462   -2.730257   -4.051624
H       0.979373    1.926210   -0.152500
H      -0.754922    2.010387   -0.509977
H      -0.202539    1.835053    1.163382
H      -1.354708   -0.368832    1.713621
H      -1.401520   -1.697150    0.462536
H       2.137064   -1.867685   -0.149953
H       0.596028   -2.757217   -0.165755
H       1.348583   -0.191906   -1.648062
H      -1.297590   -1.730034   -1.882544
H      -0.852486   -0.311972   -2.823485
