23

C      -1.940942    2.267309   -1.977691
C      -1.184857    1.467743   -0.909169
C      -1.954608    0.257893   -0.417497
C      -1.933681   -1.106444   -1.121481
C      -1.131651   -1.389775   -2.373681
C      -1.278391   -0.918985    0.210556
C       0.177991   -1.110310    0.627392
C      -0.437678   -1.766207    1.881942
O      -1.780994   -1.539062    1.400130
H      -1.369306    3.144966   -2.296117
H      -2.140039    1.654527   -2.862687
H      -2.906077    2.617666   -1.595824
H      -0.209815    1.160821   -1.305393
H      -0.966466    2.120993   -0.053651
H      -2.916405    0.498393    0.032492
H      -2.881561   -1.637297   -1.067742
H      -0.164470   -0.878675   -2.368374
H      -0.932184   -2.462871   -2.472621
H      -1.667749   -1.069749   -3.273944
H       0.767632   -1.775163   -0.007452
H       0.740944   -0.192101    0.807204
H      -0.227410   -2.834211    2.011612
H      -0.252353   -1.246524    2.829127
