17

C      -0.056430    1.517723    0.022113
C       0.056188   -0.004056   -0.003988
O       1.143843   -0.553491   -0.017876
C      -1.184084   -0.773607   -0.011367
C      -1.351929   -2.153518   -0.034713
C      -2.737240   -2.426344   -0.026240
N      -3.340914   -3.691225   -0.116326
C      -3.390687   -1.199364    0.001851
N      -2.441528   -0.214326    0.009491
H       0.947399    1.942958    0.020440
H      -0.603417    1.888608   -0.852609
H      -0.587320    1.859071    0.918617
H      -0.541787   -2.865610   -0.058418
H      -2.757933   -4.423525    0.266880
H      -4.251146   -3.729326    0.323381
H      -4.443790   -0.966822    0.010150
H      -2.636988    0.770502    0.033854
