15

O       0.080941    1.305668    0.378875
C       0.009828   -0.027139    0.104822
C      -1.204857   -0.628976    0.173065
C      -1.494548   -2.002389   -0.124818
C      -0.632052   -3.036364   -0.231553
C       0.814855   -2.984330    0.010810
N       1.394309   -3.979931    0.564119
N       1.555014   -1.891746   -0.481009
C       1.222176   -0.660826   -0.398163
H       0.997327    1.598821    0.332849
H      -2.042402    0.014474    0.426095
H      -2.551291   -2.230577   -0.238132
H      -1.018761   -4.030269   -0.431595
H       2.401913   -3.805223    0.603150
H       1.953888    0.052790   -0.800893
