14

C       0.166641    1.410192    0.037165
C      -0.037465   -0.058886   -0.019815
C      -1.143545   -0.849912   -0.183830
C      -0.693764   -2.199224   -0.150908
C       0.653541   -2.117123    0.031067
O       1.071113   -0.834962    0.112860
N       1.640692   -3.140851    0.142496
O       1.227019   -4.296185    0.063769
O       2.806585   -2.802438    0.305390
H       0.842153    1.746185   -0.756746
H      -0.790078    1.922354   -0.080464
H       0.608064    1.710874    0.993328
H      -2.156663   -0.502886   -0.312402
H      -1.264281   -3.107534   -0.245613
