18

C      -0.090561    1.570543    0.013616
C      -0.008370    0.043164    0.013857
N      -1.321419   -0.608918    0.027449
C      -1.978566   -0.837617    1.238996
C      -3.138036   -1.488148    1.287912
C      -3.694041   -2.006484   -0.000178
O      -3.247192   -1.229040   -1.128295
C      -1.996134   -0.718214   -1.180484
O      -1.532569   -0.341877   -2.228491
H       0.915341    2.001882    0.015740
H      -0.612640    1.916999   -0.881095
H      -0.620968    1.941834    0.896594
H       0.514093   -0.303405   -0.878832
H       0.541595   -0.319407    0.887856
H      -1.476281   -0.440229    2.113254
H      -3.660653   -1.658799    2.218894
H      -3.413163   -3.057260   -0.174285
H      -4.785689   -1.951080   -0.032554
