14

N      -0.007092    1.317800    0.011094
C       0.046215    0.049593    0.003563
C       1.212466   -0.861824   -0.008793
C       0.795123   -2.131929   -0.013434
C      -0.680110   -2.156071   -0.004572
N      -1.503604   -3.125049   -0.004991
N      -1.089052   -0.800017    0.005670
C      -2.444251   -0.431490    0.016420
O      -2.854423    0.695385    0.027107
H       0.939439    1.700101    0.007486
H       2.229229   -0.493281   -0.012949
H       1.391416   -3.033829   -0.022219
H      -1.008806   -4.015401   -0.013019
H      -3.076485   -1.332687    0.016789
