21

C       1.026573    0.814513    0.629537
O       0.865658   -0.507106    0.170720
C       0.139664   -0.562307   -1.043667
C      -0.005881   -1.944426   -1.478892
C      -0.146622   -3.080263   -1.852871
C      -0.260547   -4.460747   -2.303119
C       1.095230   -5.207364   -2.367197
C       1.761163   -5.336751   -1.000464
O       0.917639   -6.470874   -2.993967
H       1.583974    1.434848   -0.090830
H       0.057762    1.302835    0.822654
H       1.590182    0.766108    1.563875
H      -0.856497   -0.102943   -0.914796
H       0.654882    0.025925   -1.823625
H      -0.939040   -5.018118   -1.640917
H      -0.706089   -4.495014   -3.304055
H       1.754164   -4.649549   -3.041606
H       2.717134   -5.858935   -1.092804
H       1.933694   -4.353629   -0.554527
H       1.122359   -5.907592   -0.313223
H       0.473944   -7.051005   -2.365190
