19

O      -0.041527    1.391697    0.073774
C      -0.013161   -0.025919   -0.051129
C      -1.426603   -0.530550    0.020415
C      -2.287042   -0.442002    1.312653
C      -3.065179   -1.615701    0.697810
C      -3.365382   -1.297022   -0.823702
C      -2.450800   -0.079921   -1.046196
O      -2.485493   -2.389284   -1.241913
C      -1.793796   -2.101006   -0.025918
H       0.862044    1.716349    0.016307
H       0.436127   -0.333046   -1.010146
H       0.588015   -0.480778    0.753605
H      -1.739183   -0.765780    2.203335
H      -2.796677    0.502702    1.517424
H      -3.746907   -2.273426    1.233677
H      -4.357712   -1.338441   -1.270210
H      -2.898502    0.888102   -0.811208
H      -2.063703   -0.071749   -2.067511
H      -1.078783   -2.851162    0.311096
