23

C      -1.473724    0.736902    0.006030
C      -0.095608    0.118641    0.166900
O       0.415860   -0.183749   -1.115899
C       1.697760   -0.762438   -1.083111
C       2.119621   -1.026267   -2.520511
O       3.405295   -1.607169   -2.493674
C       3.922050   -1.916671   -3.775356
C       5.226004   -2.665740   -3.551461
O       5.018277   -3.849104   -2.806718
H      -1.416245    1.653867   -0.587301
H      -2.148964    0.042324   -0.501659
H      -1.897884    0.981733    0.984330
H       0.582798    0.813123    0.690896
H      -0.150562   -0.797990    0.778445
H       2.427963   -0.093165   -0.599378
H       1.695747   -1.709062   -0.517554
H       1.392551   -1.695961   -3.005746
H       2.126122   -0.080221   -3.083897
H       3.212301   -2.553239   -4.327306
H       4.091268   -0.999440   -4.362930
H       5.655278   -2.957730   -4.515492
H       5.942826   -1.994794   -3.051265
H       4.485800   -3.585875   -2.046776
