21

C      -0.021140    1.443403   -0.158104
C      -0.008374   -0.002606    0.014555
C       0.014785   -1.197912    0.161370
C       0.000393   -2.648269    0.325931
C      -1.379639   -3.263848    0.046991
C      -1.953537   -3.232893   -1.411363
C      -2.130185   -4.756093   -1.352697
C      -0.802311   -5.416200   -1.123897
C      -1.513092   -4.793962    0.048690
H       0.662596    1.757380   -0.954865
H      -1.021406    1.805456   -0.421388
H       0.283972    1.958455    0.759807
H       0.748482   -3.100850   -0.337432
H       0.306887   -2.910466    1.348006
H      -2.104445   -2.817906    0.733550
H      -2.891009   -2.677874   -1.478959
H      -1.276444   -2.864960   -2.189746
H      -2.984852   -5.304401   -1.729478
H      -0.810327   -6.501580   -1.134607
H       0.106592   -4.980348   -1.532879
H      -1.805912   -5.388967    0.906075
