21

C      -0.087232    1.562831   -0.058800
C      -0.031536    0.033719    0.016646
C       0.736342   -0.517706    1.226366
C       0.642478   -2.048192    1.310587
N       1.538272   -2.634483    2.300148
C       2.931560   -2.312682    1.999554
C       3.225234   -0.868398    1.584885
O       4.355673   -0.416333    1.580762
N       2.145470   -0.132932    1.179508
H       0.904877    2.006682   -0.196108
H      -0.698662    1.886758   -0.905964
H      -0.523806    1.990952    0.850226
H      -1.054388   -0.360346    0.065711
H       0.420117   -0.370378   -0.897667
H       0.276335   -0.099606    2.139440
H      -0.389735   -2.332902    1.538314
H       0.892382   -2.480085    0.332091
H       1.300392   -2.279982    3.221861
H       3.565554   -2.540757    2.859394
H       3.279810   -2.954679    1.178592
H       2.372050    0.828451    0.965868
