18

O       0.174648   -0.000463   -0.189488
C       0.089493    1.183855   -0.014946
C      -1.179465    1.962028    0.332632
N      -0.683225    3.271604    0.736909
C       0.567417    3.576111    0.015214
C       1.548454    4.341395    0.910956
C       2.090847    3.211391    1.790234
O       2.172617    2.066076    0.935303
C       1.242768    2.204389   -0.137829
H      -1.820356    1.963421   -0.568562
H      -1.738686    1.461899    1.130059
H      -1.370843    4.006527    0.637870
H       0.403300    4.063260   -0.956638
H       2.347126    4.783077    0.305786
H       1.062039    5.134147    1.484617
H       3.092535    3.400811    2.185616
H       1.408890    3.013891    2.627128
H       1.771602    2.058016   -1.085739
