21

C      -0.028970    1.405605   -0.081681
O      -0.023955    0.027471    0.206865
C      -1.275766   -0.614121    0.068439
C      -1.701130   -0.817725   -1.394153
O      -0.870749   -1.760315   -2.046592
C      -0.851357   -2.999687   -1.373616
C       0.060008   -3.938711   -2.131772
O      -0.362370   -2.871353   -0.059864
C      -1.153525   -1.992696    0.721185
H       0.961084    1.788976    0.176713
H      -0.213723    1.619789   -1.144342
H      -0.783804    1.943327    0.514707
H      -2.059581   -0.036546    0.589765
H      -2.753872   -1.150694   -1.408858
H      -1.636860    0.108581   -1.970172
H      -1.889760   -3.389560   -1.328469
H       1.069878   -3.522490   -2.154509
H       0.085975   -4.912338   -1.637541
H      -0.299632   -4.061926   -3.155673
H      -0.662889   -1.904747    1.692839
H      -2.163961   -2.411082    0.866760
