21

O       0.090405    1.317697    0.435808
C       0.118605   -0.087564    0.221590
C      -1.276636   -0.677940    0.073128
C      -2.110674   -0.341187   -1.215220
C      -2.291763   -1.847313   -1.468707
C      -3.588168   -2.463915   -1.927110
O      -3.580798   -3.882761   -1.908070
C      -0.946533   -2.488576   -1.647357
C      -1.426132   -2.171147   -0.249758
H      -0.314668    1.720716   -0.338915
H       0.742285   -0.342514   -0.649432
H       0.610602   -0.513243    1.103420
H      -1.855239   -0.412579    0.962855
H      -3.044851    0.178044   -0.986536
H      -1.594717    0.210482   -2.011355
H      -4.399197   -2.161891   -1.253133
H      -3.848353   -2.079183   -2.927740
H      -3.034004   -4.181796   -2.640897
H      -0.963630   -3.548998   -1.878004
H      -0.123556   -1.947922   -2.108497
H      -1.561303   -2.960985    0.479550
