23

C      -0.041733    1.530857   -0.148158
C       0.091122    0.012521    0.007486
C       0.714894   -0.491020    1.333863
C       2.182149   -0.038948    1.459906
C      -0.092272    0.017728    2.554074
C       0.575322   -2.032841    1.360352
O      -0.337008   -2.598242    0.810465
C       1.612212   -2.828483    2.156584
O       1.208009   -4.170928    2.230902
H       0.922187    2.046126   -0.084526
H      -0.469088    1.766710   -1.127767
H      -0.704176    1.966488    0.605949
H      -0.891107   -0.455569   -0.095144
H       0.694291   -0.380238   -0.821156
H       2.243916    1.052966    1.448729
H       2.640431   -0.370596    2.396409
H       2.792259   -0.411514    0.630075
H      -1.149182   -0.247141    2.458155
H       0.280519   -0.412686    3.489471
H      -0.014030    1.105065    2.642037
H       2.584583   -2.709111    1.649660
H       1.723849   -2.365978    3.151680
H       1.896082   -4.660239    2.691040
