15

C      -0.050933    1.498107    0.015418
C       0.002553   -0.020617   -0.023398
C       0.747362   -0.687621   -1.138546
N       1.302053   -0.700506    0.218350
C      -1.142694   -0.681579    0.546540
C      -2.133565   -1.196181    1.014938
C      -3.240782   -1.785364    1.540846
C      -4.225607   -2.306261    2.007330
H       0.830167    1.923876   -0.475482
H      -0.942645    1.870087   -0.497732
H      -0.082613    1.858110    1.048383
H       0.411921   -1.653280   -1.503124
H       1.191302   -0.039272   -1.890171
H       2.027548    0.008366    0.306364
H      -5.088894   -2.767140    2.418732
