17

C       0.002952    1.466830    0.088612
N      -0.016392    0.010980    0.001283
C      -1.178365   -0.702498    0.089133
C      -1.183182   -2.062708    0.006166
C      -2.440496   -2.879362    0.098363
N      -0.004461   -2.746044   -0.169321
C       1.103091   -2.075614   -0.253648
C       1.222789   -0.621648   -0.177963
O       2.258490    0.022384   -0.255767
H       0.632343    1.780109    0.925069
H       0.433281    1.887654   -0.823351
H      -1.014949    1.832185    0.226962
H      -2.083359   -0.122672    0.227275
H      -2.583998   -3.474701   -0.809612
H      -2.386001   -3.582378    0.936348
H      -3.320997   -2.246336    0.237233
H       2.036305   -2.616804   -0.392585
