18

C       0.076010    1.455043   -0.254693
C       0.099594   -0.035126   -0.059958
N      -0.860904   -0.719406    0.838897
C       0.586985   -0.759364    1.136385
C       1.230165   -2.041626    0.659550
O       0.821592   -2.193173   -0.700969
C       0.442909   -0.940472   -1.245403
C      -0.757327   -1.140304   -2.158709
O      -1.138321   -0.298722   -2.931055
H       1.035434    1.817174   -0.639165
H      -0.697118    1.735356   -0.977108
H      -0.127877    1.969983    0.689577
H      -1.305069   -0.021065    1.431717
H       0.980925   -0.238199    2.002698
H       2.325694   -1.967231    0.738164
H       0.895876   -2.930217    1.203900
H       1.256755   -0.480267   -1.827876
H      -1.267214   -2.117278   -2.028541
