20

C      -0.344785    1.478247   -0.066202
C       0.153396    0.037140    0.111972
C       0.861731   -0.501996   -1.107502
N       0.103183   -0.880811   -2.321450
C       0.815192   -1.924218   -1.556133
C       2.170504   -2.336289   -2.131185
C       3.042211   -1.086177   -2.033916
O       2.603062    0.025053   -2.817644
C       2.260657    0.009646   -1.432949
H       0.484205    2.163091   -0.271792
H      -1.045271    1.552232   -0.903929
H      -0.854589    1.831143    0.835201
H       0.831267   -0.013947    0.974540
H      -0.691629   -0.620855    0.351346
H      -0.887043   -0.922741   -2.083585
H       0.224626   -2.664704   -1.023393
H       2.608830   -3.133613   -1.520023
H       2.094299   -2.700974   -3.160149
H       4.121588   -1.181319   -1.931690
H       2.698180    0.799535   -0.827023
