18

C       0.041105    1.528994   -0.201764
C      -0.012574    0.017574    0.071682
C      -1.416752   -0.529706    0.033251
C      -1.857794   -1.409800   -0.951519
N      -3.101504   -1.892879   -1.002255
C      -3.941464   -1.482771   -0.050561
N      -5.248294   -1.920771   -0.119159
C      -3.506656   -0.594658    0.955148
N      -2.269668   -0.131952    0.995027
H       1.064971    1.906042   -0.117606
H      -0.325205    1.760679   -1.207295
H      -0.584782    2.065060    0.516921
H       0.604999   -0.518167   -0.657832
H       0.415783   -0.182842    1.060905
H      -1.179039   -1.748397   -1.731532
H      -5.380009   -2.729025   -0.709121
H      -5.767199   -1.947351    0.744394
H      -4.190268   -0.266203    1.736472
