15

O      -0.046866    0.003960   -0.019438
C      -0.024759    1.197391    0.044560
C      -1.114928    2.298671   -0.006377
C      -1.274018    2.717698    1.434214
C      -0.163438    3.189035    2.008589
C       0.972635    3.394573    1.039161
O       0.452647    4.333936    0.028659
C       0.024313    3.205500   -0.711002
C       1.064706    2.248818   -0.053780
H      -2.040643    2.088840   -0.539440
H      -2.223108    2.593390    1.941964
H      -0.094640    3.523536    3.036188
H       1.913653    3.739117    1.466893
H      -0.104082    3.389117   -1.777160
H       2.057003    2.021791   -0.438556
