18

C      -0.506454    1.454412    0.155411
C       0.630387    0.483407   -0.211941
C       1.066798   -0.343204    0.907270
C       1.408741   -1.021261    1.842737
C       1.834725   -1.824936    2.965520
C       1.402340   -1.384891    4.391537
C       0.670093   -2.707983    4.410403
N      -0.031264   -3.315326    5.252116
O       1.046812   -3.065939    3.131819
H      -0.192327    2.139680    0.947245
H      -0.796591    2.046110   -0.717562
H      -1.384484    0.908021    0.509596
H       0.307641   -0.170537   -1.032084
H       1.489224    1.047112   -0.598091
H       2.893214   -2.090188    2.886692
H       2.206194   -1.286339    5.121881
H       0.757765   -0.506451    4.424097
H      -0.356887   -4.212030    4.887020
