19

C      -0.045374    1.551707   -0.014148
C       1.345417    2.176015    0.012232
O       1.962942    2.110604    1.286765
C       2.239295    0.869665    1.846235
C       2.428564   -0.478379    1.078927
O       2.327270   -1.128392    2.403995
C       1.191998   -0.180073    2.368315
C       0.888548   -0.686130    0.929692
C      -0.007989    0.022069   -0.080496
H      -0.583643    1.888208    0.880575
H      -0.597971    1.937380   -0.879010
H       1.990283    1.703580   -0.747332
H       1.294670    3.244363   -0.216841
H       3.024270    1.027952    2.587336
H       3.237649   -0.810899    0.426213
H       0.546481   -0.143940    3.247144
H       0.666819   -1.757362    0.945738
H      -1.025827   -0.368254    0.039182
H       0.310540   -0.287862   -1.085602
