20

C      -0.017293    1.426204   -0.275230
C       0.139028   -0.044075    0.029939
N       1.511890   -0.594201    0.064153
C       0.706274   -0.595618    1.293923
C       1.185804    0.295915    2.422414
C       0.145992   -1.958553    1.753718
O      -0.329058   -2.719019    0.676811
C       1.193879   -2.769774    2.501894
O       1.508926   -3.875502    2.129505
H       0.803057    2.018244    0.135558
H      -0.022167    1.583087   -1.359225
H      -0.962607    1.812482    0.121856
H      -0.605763   -0.681625   -0.439002
H       1.491920   -1.529140   -0.340604
H       1.425138    1.294429    2.055901
H       0.417294    0.395954    3.198029
H       2.093682   -0.097881    2.890767
H      -0.666072   -1.757541    2.477369
H       0.134262   -3.571250    0.738326
H       1.642886   -2.314756    3.403593
