21

C      -0.105783    1.637465    0.552212
C       0.022275    0.218788   -0.035781
C       0.747713   -0.771927    0.887418
C       2.232053   -0.512100    0.973790
O       2.684330    0.598281    1.764167
C       3.064552   -0.722770    2.171037
C       2.560976   -1.214301    3.503841
C      -1.349385   -0.287869   -0.442022
O      -1.813480   -1.360026   -0.149017
H       0.879206    2.050334    0.775012
H      -0.616745    2.309786   -0.145056
H      -0.678763    1.619184    1.485558
H       0.581065    0.305619   -0.983494
H       0.290480   -0.737777    1.880121
H       0.589394   -1.787740    0.507685
H       2.745494   -0.584991    0.010523
H       4.119856   -0.939123    1.988508
H       1.507065   -0.975384    3.656159
H       2.689693   -2.299277    3.582575
H       3.132851   -0.750626    4.314405
H      -1.930779    0.434821   -1.061978
