17

O      -0.123882    1.503103   -0.106625
C      -0.053297    0.180351    0.383412
C      -1.320840   -0.586633    0.033219
O      -1.504373   -0.647141   -1.415814
C      -1.432689   -2.077227   -1.428784
C      -2.259379   -2.952787   -2.325121
C      -0.762900   -2.881981   -2.505227
C      -1.257733   -2.124856    0.057570
O      -1.117188   -2.974404    0.886295
H      -0.298722    1.432522   -1.052854
H       0.822275   -0.354739   -0.015790
H       0.053368    0.238882    1.471083
H      -2.197799   -0.145492    0.520523
H      -2.696855   -3.843295   -1.886608
H      -2.878488   -2.436787   -3.050705
H      -0.384521   -2.319974   -3.352084
H      -0.152967   -3.722929   -2.192770
