21

C      -0.057730    1.585846   -0.077947
C      -0.091825    0.057618   -0.175607
C      -1.454014   -0.524885    0.217432
C      -1.558988   -2.049165    0.057428
C      -0.654319   -2.835283    1.036293
C      -2.985799   -2.519578    0.254154
O      -3.848772   -1.909300    0.843445
C      -3.379455   -3.883759   -0.340694
O      -2.651253   -4.562398   -1.015944
H       0.923081    1.980814   -0.359971
H      -0.803910    2.041642   -0.737918
H      -0.271795    1.921467    0.942740
H       0.152758   -0.249150   -1.201511
H       0.696127   -0.359754    0.462649
H      -1.691860   -0.257082    1.253984
H      -2.234077   -0.054058   -0.393777
H      -1.268292   -2.345340   -0.959084
H       0.394826   -2.580498    0.870081
H      -0.905207   -2.592647    2.074208
H      -0.760083   -3.913584    0.894038
H      -4.426097   -4.164528   -0.095137
