17

C       0.499356    1.413645    0.142709
O       0.715477    0.023980    0.066773
C      -0.062702   -0.691206    0.998065
C       0.248458   -2.151667    0.880433
N      -0.609666   -3.068439    0.691248
C       0.134704   -4.338045    0.708459
C       1.619744   -3.919037    0.861495
O       1.555947   -2.484653    1.032519
H       0.758575    1.812743    1.136321
H       1.141932    1.882348   -0.605908
H      -0.548496    1.677527   -0.070674
H       0.160865   -0.358494    2.026935
H      -1.139083   -0.559074    0.822986
H      -0.216040   -4.960975    1.538824
H      -0.051831   -4.894090   -0.215487
H       2.113992   -4.346009    1.737821
H       2.224649   -4.130459   -0.025259
