22

C      -0.094939    1.578436    0.012390
C      -0.041598    0.048318    0.003118
C      -1.432572   -0.594376    0.012749
C      -1.377810   -2.114975    0.003465
O      -2.702661   -2.618290    0.013313
C      -2.765873   -4.020634    0.005889
C      -4.253135   -4.396655    0.018176
C      -4.456117   -5.841666    0.011784
N      -4.597781   -6.988311    0.006583
H       0.909728    2.011908    0.005294
H      -0.629751    1.960482   -0.864007
H      -0.612901    1.950360    0.903145
H       0.512265   -0.293207   -0.881289
H       0.529052   -0.303251    0.872794
H      -1.991197   -0.269376    0.899040
H      -2.008052   -0.259242   -0.858862
H      -0.842830   -2.477577   -0.890662
H      -0.825777   -2.487789    0.882907
H      -2.278297   -4.439674   -0.888836
H      -2.261042   -4.449868    0.886098
H      -4.727657   -3.966478    0.906232
H      -4.744812   -3.956276   -0.855432
