24

C      -0.561204    1.344795    0.301638
C       0.323426    0.155679   -0.094272
C       1.019917   -0.499701    1.098941
C       2.185225    0.333760    1.613554
N       0.107209   -1.129965    2.075140
C       0.993601   -1.995720    1.267707
C       0.276400   -2.909812    0.286536
C       2.138990   -2.708491    1.961159
O       1.580375   -3.735752    2.777072
H       0.015350    2.160739    0.749580
H      -1.076615    1.752487   -0.573445
H      -1.314405    1.025290    1.027350
H      -0.293254   -0.576852   -0.618113
H       1.090391    0.479545   -0.810132
H       1.865687    1.369361    1.769754
H       2.579606   -0.024154    2.566554
H       3.009161    0.353764    0.890831
H       0.473127   -1.037855    3.020588
H      -0.700490   -2.513378    0.010405
H       0.869027   -3.060515   -0.623533
H       0.120273   -3.884237    0.757320
H       2.808807   -3.135246    1.196990
H       2.735234   -2.020325    2.571954
H       2.303040   -4.267644    3.122762
