20

C      -0.044640    1.532957    0.139026
C      -0.042488    0.005197    0.019097
C      -1.467929   -0.573648    0.044222
O      -2.163935   -0.283316    1.247646
C       0.669059   -0.471181   -1.269601
O       0.031158    0.032422   -2.415023
C       2.144812   -0.040342   -1.318145
N       2.965443   -0.551965   -0.370512
O       2.524854    0.729355   -2.186750
H       0.970653    1.937190    0.194964
H      -0.536345    1.981450   -0.729272
H      -0.570259    1.845620    1.045867
H       0.488039   -0.419126    0.883118
H      -2.018484   -0.222860   -0.838717
H      -1.417217   -1.667180   -0.015595
H      -2.491076    0.618649    1.191343
H       0.641406   -1.574334   -1.291543
H       0.712356    0.570633   -2.856096
H       2.643883   -1.212223    0.315112
H       3.940253   -0.300676   -0.385245
