21

C      -0.027957    1.541574    0.033867
C       0.032324    0.040142    0.030105
C      -0.849687   -0.814723    0.898487
C       0.642397   -0.927336    1.054609
C       1.257605   -1.772774   -0.091101
C       0.655788   -3.104994   -0.439547
C      -0.170063   -3.020355   -1.485745
C      -0.280450   -1.619805   -2.059088
C       0.633744   -0.784461   -1.132069
H       0.931897    1.981898   -0.261712
H      -0.788647    1.912226   -0.664986
H      -0.280371    1.926793    1.027501
H      -1.349635   -0.274730    1.697369
H      -1.429249   -1.640695    0.495620
H       1.137108   -0.701311    1.992684
H       2.350801   -1.781019   -0.052442
H       0.861664   -4.015800    0.113282
H      -0.723751   -3.855173   -1.904999
H       0.046286   -1.590424   -3.106570
H      -1.318590   -1.260959   -2.053234
H       1.376132   -0.204083   -1.683947
