19

C       0.505101   -0.483318    1.546163
O      -0.004168   -0.199640    0.248059
C      -1.281719   -0.709594   -0.022642
C      -2.390611    0.001352    0.728054
O      -2.376982    1.388728    0.455700
C      -1.491954   -1.130547   -1.425758
C      -1.437078   -2.202449   -0.329068
C      -0.259832   -3.100618   -0.306100
O      -0.291827   -4.253182    0.052855
H       1.522278   -0.087420    1.570436
H      -0.081459   -0.001526    2.338283
H       0.534573   -1.563199    1.739463
H      -3.362443   -0.386130    0.407530
H      -2.304088   -0.196475    1.808601
H      -1.452149    1.662388    0.470707
H      -2.449267   -0.940190   -1.896080
H      -0.631649   -1.077846   -2.084559
H      -2.364426   -2.678289   -0.027121
H       0.683735   -2.632141   -0.663802
