17

C      -0.155674    1.598038   -0.094288
C      -0.018415    0.086113   -0.020284
N      -1.312236   -0.521216   -0.145168
C       1.226630   -0.651158   -0.668158
C       2.166272   -0.092264    0.420126
C       0.868727   -0.594668    1.096353
O       0.946221   -1.803095    0.236639
C       0.576993   -0.756525    2.499026
N       0.335338   -0.834507    3.626588
H       0.787043    2.132413    0.019354
H      -0.578590    1.879986   -1.065483
H      -0.848606    1.939728    0.679340
H      -1.810195   -0.168782   -0.954447
H      -1.218910   -1.528267   -0.220400
H       1.439153   -0.888087   -1.710084
H       3.027135   -0.725568    0.628691
H       2.403034    0.969918    0.448040
