19

C       0.223453    1.535677    0.148433
C      -0.094008    0.042701   -0.018568
C       0.447262   -0.517832   -1.295785
C      -0.019004   -0.253185   -2.741559
C       0.516307   -1.684869   -3.138981
C       1.604870   -1.747020   -4.177585
O       1.529150   -2.370713   -5.207164
C       0.973202   -1.842468   -1.669628
O       1.864096   -0.757696   -1.382607
H       1.304332    1.703031    0.143376
H      -0.213636    2.128750   -0.661592
H      -0.176935    1.914330    1.092935
H       0.331189   -0.526902    0.815076
H      -1.179448   -0.115071    0.004686
H      -1.102763   -0.185829   -2.857111
H       0.455306    0.601113   -3.230995
H      -0.291291   -2.365837   -3.413929
H       2.511199   -1.157665   -3.921254
H       1.101004   -2.756225   -1.099971
