14

C      -0.270271    0.989132    0.405436
C      -0.073440   -0.371472   -0.070718
C       0.087932   -1.495125   -0.471555
C       0.267797   -2.861115   -0.949789
O      -0.949355   -3.617596   -0.989628
C      -1.456465   -3.978823    0.208231
N      -2.537402   -4.626626    0.260915
H       0.265976    1.166666    1.343790
H       0.085175    1.720722   -0.328059
H      -1.332196    1.188749    0.584920
H       0.630140   -2.866386   -1.981517
H       1.014399   -3.387559   -0.338654
H      -0.842415   -3.659201    1.060753
H      -2.771651   -4.830888    1.230231
