12

F       0.381387    0.181834    0.004696
C      -0.020439    1.448061   -0.034163
F       1.022249    2.215858   -0.380861
F      -0.947578    1.565388   -0.995480
C      -0.589173    1.918465    1.285920
N      -1.360524    0.948369    2.042101
C      -0.091255    1.435665    2.609652
C       0.981481    0.481349    2.770486
N       1.860434   -0.244392    2.956836
H      -0.915312    2.954738    1.239972
H      -2.152813    1.381112    2.508282
H      -0.131919    2.166259    3.413932
