22

C      -0.535701    1.658552    0.308345
C      -0.191428    0.197350   -0.008189
C       0.500099   -0.482451    1.160050
C      -0.180061   -1.182009    2.304692
C      -1.354220   -2.050042    1.825803
C      -0.356401   -2.902898    0.968194
C      -0.633690   -3.211289   -0.499825
C       0.779565   -1.949332    1.376519
H       0.365600    2.234519    0.546820
H      -1.027339    2.145550   -0.539653
H      -1.206753    1.725264    1.171301
H      -1.108066   -0.331618   -0.283070
H       0.460480    0.156748   -0.890615
H       1.345685    0.107466    1.517410
H      -0.023624   -0.881586    3.334186
H      -1.822096   -2.628449    2.625248
H      -2.146266   -1.526496    1.279864
H      -0.197939   -3.852192    1.491829
H      -0.811216   -2.309915   -1.091082
H       0.215462   -3.738206   -0.950115
H      -1.513308   -3.857319   -0.602477
H       1.791392   -2.281150    1.585688
