18

O      -0.056844   -0.035115   -0.339835
C       0.003514    1.160662   -0.143194
N      -1.060538    1.992310    0.153172
C      -0.681149    3.376874    0.281016
C       0.823318    3.327099    0.078099
C       1.188768    2.058998   -0.159743
C       1.693016    4.510016    0.143530
C       1.227182    5.876191   -0.336894
C       1.435231    5.641780    1.127502
H      -2.008955    1.659445    0.153809
H      -1.164746    4.013459   -0.474605
H      -0.942028    3.789468    1.266356
H       2.186470    1.687840   -0.347164
H       2.738857    4.285980   -0.039691
H       1.946503    6.482080   -0.875883
H       0.210373    5.964655   -0.702497
H       0.561242    5.569475    1.764812
H       2.300203    6.083407    1.608984
