14

C      -0.017503    1.451774   -0.077669
N      -0.007415    0.008882    0.020923
N      -0.037970   -0.751454   -1.100843
C      -0.019910   -2.033895   -0.726350
C       0.023515   -2.089335    0.678411
C       0.030514   -0.784332    1.125205
C       0.074368   -0.902383    2.538115
N       0.091726   -2.169328    2.890608
O       0.059752   -2.944749    1.716205
H       0.886474    1.879750    0.367457
H      -0.052167    1.702263   -1.137297
H      -0.895736    1.871037    0.423712
H      -0.038641   -2.816417   -1.466952
H       0.094332   -0.152544    3.315028
