25

C       0.167300    1.602058   -0.190160
C       0.043781    0.083164    0.022214
C       0.366408   -0.629971   -1.303019
C       0.860487   -0.460369    1.246105
C       0.785574   -2.000337    1.290218
C       2.339656   -0.028661    1.179424
C       0.192171    0.086546    2.549991
C       0.939204   -0.263415    3.816123
O       0.622088   -1.142718    4.578423
H       1.173896    1.879936   -0.519959
H      -0.529199    1.926899   -0.969677
H      -0.062317    2.182231    0.707732
H      -1.010006   -0.131702    0.251153
H       1.417671   -0.508093   -1.586528
H       0.148966   -1.699521   -1.266486
H      -0.235517   -0.200834   -2.110554
H       1.371731   -2.452746    0.486113
H       1.171542   -2.384932    2.238319
H      -0.248626   -2.349020    1.193538
H       2.462159    1.050044    1.316586
H       2.931951   -0.530274    1.951304
H       2.783098   -0.295029    0.215311
H       0.128893    1.179459    2.501072
H      -0.820752   -0.320069    2.634176
H       1.840294    0.359116    4.020525
