19

C      -0.040901    1.475393   -0.008744
C      -0.045143    0.020246    0.006816
C      -0.062549   -1.182934    0.015484
C      -0.038497   -2.638776    0.041186
C       0.836563   -3.205030    1.177009
C       0.681398   -4.727376    1.206834
O      -0.691392   -5.089655    1.269509
C      -1.404395   -4.532032    0.199165
O      -1.377141   -3.128250    0.190211
H       0.598930    1.881381    0.782347
H       0.323695    1.863658   -0.966011
H      -1.050879    1.870132    0.146472
H       0.359927   -3.010261   -0.921061
H       1.883156   -2.922894    1.024084
H       0.496917   -2.776432    2.124282
H       1.144195   -5.171837    0.308396
H       1.161995   -5.164246    2.085775
H      -1.002776   -4.918915   -0.758739
H      -2.448537   -4.826973    0.318045
