20

C      -0.021331    1.504622    0.109039
C      -0.019918   -0.017968   -0.045608
C      -1.437250   -0.586569    0.018839
C       0.755471   -0.484182   -1.302676
C       2.158077   -0.804416   -0.770722
C       1.829424   -1.324355    0.640560
O       0.735390   -0.550874    1.085126
C       1.492486   -2.768842    0.623652
N       1.226936   -3.893575    0.602782
H       0.990746    1.910330    0.016349
H      -0.652239    1.971458   -0.654011
H      -0.408451    1.781245    1.093580
H      -2.032884   -0.231718   -0.828876
H      -1.414760   -1.679423   -0.007675
H      -1.934862   -0.275358    0.941794
H       0.297020   -1.386762   -1.718025
H       0.763257    0.277701   -2.085013
H       2.707086   -1.526169   -1.377781
H       2.764545    0.100565   -0.673779
H       2.655635   -1.186040    1.345759
