19

C      -0.337642    1.628420   -0.054442
C      -0.028957    0.142050   -0.103664
C       1.038622   -0.304440   -1.138163
C       1.870148   -0.627335    0.081519
N       3.019429   -1.087075    0.274701
O       0.904470   -0.223459    0.986412
C      -1.278582   -0.706563   -0.030594
C      -1.253752   -2.092994    0.489297
N      -1.881597   -1.010295    1.274720
H       0.583455    2.217304   -0.068421
H      -0.947061    1.915384   -0.917604
H      -0.896753    1.875314    0.852792
H       0.771717   -1.166731   -1.750872
H       1.446822    0.485780   -1.770754
H       3.229813   -1.157640    1.271790
H      -2.006303   -0.456586   -0.801555
H      -1.945198   -2.828646    0.089138
H      -0.307478   -2.493149    0.839511
H      -1.225865   -0.731555    2.003500
