19

O      -0.023086    1.443299   -0.033327
C       0.016064    0.028296    0.064986
C      -1.418171   -0.478934   -0.066228
C      -1.498498   -1.980033    0.020946
C      -1.035220   -2.883319   -1.142455
O      -2.220408   -3.711047   -1.016745
C      -2.749647   -2.890249    0.036966
C      -2.270597   -3.314996    1.430786
O      -1.072036   -2.506353    1.303211
H       0.863980    1.779730    0.123231
H       0.643053   -0.408480   -0.730304
H       0.428847   -0.301598    1.028841
H      -2.021772   -0.030245    0.730044
H      -1.832805   -0.142239   -1.023385
H      -0.995077   -2.398735   -2.126542
H      -0.109043   -3.437656   -0.957860
H      -3.789968   -2.600364   -0.122426
H      -2.894565   -2.968834    2.264655
H      -2.054200   -4.382714    1.540557
