17

C      -0.041612    1.526273    0.077176
C       0.037364    0.017588    0.017587
C       1.352980   -0.684947   -0.202017
C       0.685665   -0.754131    1.153923
O       1.269707   -0.018522    2.203482
C       1.093381   -0.704639    3.394495
O       1.498571   -0.280612    4.439112
C       0.361751   -1.948200    3.071809
C       0.128249   -1.972306    1.755323
H       0.831914    1.946210    0.580554
H      -0.095275    1.946553   -0.932454
H      -0.930636    1.851131    0.626775
H      -0.833592   -0.471384   -0.411875
H       1.387618   -1.587169   -0.802664
H       2.246058   -0.070631   -0.243095
H       0.092478   -2.672154    3.825646
H      -0.383334   -2.733456    1.180799
