16

C       0.487415    1.430350    0.135115
O       1.021119    0.213891   -0.399508
C      -0.324643    0.208912    0.077546
C      -0.584724   -0.625919    1.288016
C       0.525616   -1.011599    2.242853
C      -0.182785   -2.085515    1.470570
O      -1.295050   -2.697997    2.110069
C      -2.187761   -1.693194    2.300165
N      -1.910351   -0.528805    1.868078
H       0.908523    1.742461    1.088834
H       0.320992    2.222970   -0.591815
H      -1.083775    0.131349   -0.701195
H       1.530186   -0.794389    1.897985
H       0.348083   -0.917703    3.308799
H       0.312525   -2.731800    0.758570
H      -3.094121   -1.981534    2.818101
