23

C      -0.074678    1.568390    0.008543
C       0.011930    0.037935   -0.004592
C       0.738583   -0.548407    1.210575
C       0.026769   -0.280371    2.559048
O       0.344314   -1.365293    3.428057
C       0.636019   -2.481142    2.627703
C      -0.344530   -2.875701    1.549983
C       0.906513   -2.070541    1.210665
C       1.992417   -2.678895    0.357252
H       0.922597    2.020309    0.053820
H      -0.568793    1.943662   -0.892926
H      -0.642509    1.934397    0.870734
H      -0.997424   -0.389905   -0.059395
H       0.528883   -0.284798   -0.916742
H       1.749599   -0.117944    1.252052
H       0.347283    0.643196    3.048359
H      -1.062298   -0.217474    2.408496
H       1.210553   -3.227940    3.164216
H      -0.351298   -3.917082    1.244193
H      -1.320344   -2.402317    1.526058
H       1.783836   -2.552202   -0.711910
H       2.964896   -2.215896    0.563378
H       2.087874   -3.753354    0.543873
