17

C       1.365664    1.149377    0.317874
C       0.255329    0.096081    0.212832
C       0.033843   -0.344285   -1.212640
O       1.010506   -1.211471   -1.811659
C      -0.318935   -1.714635   -1.634831
C      -0.525636   -2.856642   -0.666096
N       0.605282   -3.258869   -0.025340
O      -1.625820   -3.346908   -0.504688
H       2.315683    0.749639   -0.049655
H       1.127149    2.039987   -0.273546
H       1.507490    1.465245    1.355196
H       0.494036   -0.771231    0.834345
H      -0.689738    0.507739    0.588978
H      -0.287806    0.452809   -1.886928
H      -0.902875   -1.834803   -2.545952
H       1.495618   -2.892282   -0.319310
H       0.562362   -4.076463    0.560116
