16

O       0.134246    0.110522   -0.770625
C       0.003677    1.223990   -0.295525
N      -1.199321    1.888994   -0.422272
C      -1.714317    2.960333    0.329594
C      -1.235692    4.207934    0.398968
C      -0.078743    4.767288   -0.283668
C       1.160667    4.257332   -0.372084
C       1.683991    3.065288    0.287296
C       1.157375    1.840954    0.418382
H      -1.889345    1.280474   -0.844297
H      -2.646327    2.728034    0.841160
H      -1.827582    4.908672    0.983788
H      -0.242187    5.751788   -0.719494
H       1.911397    4.861094   -0.878554
H       2.677321    3.205404    0.715164
H       1.742524    1.079996    0.925412
