19

N      -0.650149   -0.956057   -0.892275
C      -0.415327    0.105457   -0.496877
C      -0.108925    1.445915   -0.001809
C      -0.157995    1.624784    1.545414
C       1.339151    2.012645    1.476671
C       2.373408    1.003405    2.012024
C       2.578173    0.013084    0.847691
C       2.348147    0.896543   -0.397125
N       1.324302    1.882851   -0.023089
H      -0.739517    2.151262   -0.554409
H      -0.837573    2.408694    1.881946
H      -0.369989    0.706525    2.095685
H       1.554918    3.031839    1.809467
H       3.310562    1.523553    2.237259
H       2.039579    0.520789    2.935067
H       3.565945   -0.454793    0.859617
H       1.834557   -0.789683    0.881017
H       3.264045    1.441372   -0.656459
H       2.038312    0.332521   -1.280225
