17

O       0.041005    1.391308    0.124710
C      -0.040479    0.002055    0.018816
C      -1.486549   -0.492868   -0.093681
C      -1.493499   -2.018374   -0.113584
N      -0.622332   -2.530537   -1.169142
C       0.562118   -1.954281   -1.584079
N       1.482739   -2.489134   -2.290169
C       0.739938   -0.493709   -1.191504
O       1.449560    0.264550   -1.807308
H       0.701773    1.660700   -0.534227
H       0.415293   -0.484845    0.904080
H      -2.066471   -0.124528    0.756694
H      -1.939083   -0.091319   -1.007109
H      -1.181082   -2.396066    0.873389
H      -2.505221   -2.393540   -0.295435
H      -0.699907   -3.519322   -1.360104
H       1.273600   -3.469177   -2.498117
