17

O       0.076828    1.398613    0.117449
C       0.062582    0.003545   -0.062217
C      -1.370718   -0.542112   -0.015720
C      -1.427731   -2.068705   -0.159064
C      -2.808853   -2.621223    0.140086
O      -3.288467   -3.619716   -0.341855
N      -3.484360   -1.878244    1.104145
C      -2.968495   -0.719220    1.673730
N      -1.982670   -0.058149    1.226778
H      -0.507442    1.560835    0.871164
H       0.516471   -0.208785   -1.036257
H       0.660833   -0.514790    0.707389
H      -1.926307   -0.074953   -0.843274
H      -1.131427   -2.402813   -1.155377
H      -0.737834   -2.533509    0.559972
H      -4.350347   -2.270666    1.445076
H      -3.493116   -0.387457    2.568946
