15

C      -0.098611    1.701494    0.575447
C      -0.070547    0.233779    0.209104
C      -1.322619   -0.313862   -0.413311
O      -1.536839   -1.487238   -0.595028
C       1.163448   -0.459315   -0.330408
O       2.356321    0.153513    0.206196
C       1.989972   -0.271104    1.489907
O       2.624690   -0.179298    2.485174
C       0.675931   -0.850733    1.026867
H       0.901229    2.072174    0.805392
H      -0.487999    2.292099   -0.260834
H      -0.741316    1.878501    1.443136
H      -2.051131    0.463534   -0.729884
H       1.240888   -1.012437   -1.254945
H       0.173389   -1.740223    1.375422
