20

C       0.140041    1.524413    0.207867
C      -0.039845    0.017622   -0.055096
C      -1.517263   -0.389464   -0.000786
C       0.607457   -0.375823   -1.353083
C       0.063702   -0.863397   -2.520925
N       1.121063   -1.025250   -3.354177
C       1.150772   -1.512762   -4.717374
N       2.264047   -0.660189   -2.742463
N       1.956833   -0.269457   -1.539555
H       1.196660    1.798716    0.164302
H      -0.395478    2.115930   -0.543235
H      -0.250736    1.793783    1.194669
H       0.493326   -0.518640    0.741125
H      -2.099630    0.134561   -0.767798
H      -1.645128   -1.465901   -0.153828
H      -1.950001   -0.133501    0.970864
H      -0.942900   -1.103902   -2.817613
H       0.553939   -0.871190   -5.371849
H       2.191039   -1.495246   -5.042192
H       0.769364   -2.536367   -4.771729
