17

C      -0.154795    1.393323    0.466925
C      -0.098836   -0.098395    0.115805
C      -1.461363   -0.696817   -0.156861
C      -1.717344   -2.176009   -0.016436
N      -2.288736   -1.223415    0.912944
C      -2.129737   -1.140850    2.268144
O      -1.869179   -0.144921    2.903641
C      -2.411678   -2.424499    2.945710
N      -2.596917   -3.420200    3.502305
H       0.853009    1.790391    0.617583
H      -0.621558    1.968991   -0.339745
H      -0.730487    1.550537    1.381459
H       0.509608   -0.249189   -0.785044
H       0.389583   -0.659270    0.920917
H      -2.043184   -0.179003   -0.918805
H      -2.420055   -2.675221   -0.677168
H      -0.900010   -2.795243    0.345613
