19

O       0.142377    1.347116    0.263204
C       0.007167    0.002378   -0.174944
C      -1.415526   -0.498134   -0.065198
C      -1.868367   -1.086892    1.259822
C      -1.653566   -1.984413    0.067623
O      -2.780448   -2.565739   -0.529841
C      -3.360844   -1.762153   -1.529136
O      -3.634452   -0.465796   -1.077541
C      -2.428214    0.268307   -0.902800
H      -0.153356    1.382397    1.179469
H       0.331250    0.004910   -1.222229
H       0.683793   -0.670685    0.375362
H      -1.157376   -1.133537    2.079248
H      -2.902086   -0.933323    1.548463
H      -0.797390   -2.654824    0.067336
H      -2.700616   -1.717137   -2.414906
H      -4.311869   -2.231539   -1.787068
H      -2.703689    1.216959   -0.436457
H      -1.983627    0.490868   -1.887320
