19

C      -0.435460    0.949841   -0.010217
O       0.565680   -0.044097    0.123059
C       0.934459   -0.614025   -1.086542
C       1.478479   -1.980393   -1.119636
C       0.088235   -1.669573   -1.795711
C      -0.535134   -2.591169   -0.792815
O      -1.615637   -3.107977   -0.720505
C       0.798923   -2.862603   -0.050284
C       1.176418   -4.341601   -0.063340
H      -0.094814    1.779650   -0.647086
H      -1.358744    0.535270   -0.436825
H      -0.640351    1.331717    0.991757
H       1.378062    0.093503   -1.791441
H       2.400011   -2.236771   -1.627417
H      -0.193777   -1.562989   -2.836614
H       0.852210   -2.451281    0.960538
H       1.147984   -4.752593   -1.078211
H       2.183944   -4.492578    0.336776
H       0.473644   -4.913350    0.548675
