14

C       0.173416    1.489398   -0.001188
C      -0.043791   -0.010673    0.051203
O       0.744341   -0.527824    1.141610
C       0.671867   -1.860924    1.337731
C       1.538053   -2.276315    2.503352
O       0.000916   -2.600219    0.662682
H       1.228058    1.726028   -0.168120
H      -0.410422    1.920893   -0.819691
H      -0.141010    1.962781    0.933250
H      -1.094413   -0.267589    0.219601
H       0.266718   -0.502936   -0.875851
H       1.465033   -3.354025    2.643392
H       2.578083   -1.993005    2.318240
H       1.218037   -1.758853    3.412225
