22

C      -0.031049    1.521890    0.035600
C       0.054675    0.004380    0.041550
C      -1.169698   -0.633761   -0.600010
C       1.341833   -0.749268   -0.227649
C       2.567445   -0.019214    0.326613
C       1.910340   -0.030460    1.742429
C       0.691609   -0.782526    1.172301
C       0.019404   -1.880723    1.951598
H       0.844024    2.004648    0.474007
H      -0.134915    1.897200   -0.989525
H      -0.909885    1.860676    0.597427
H      -1.320889   -0.229577   -1.607591
H      -1.073017   -1.718482   -0.695065
H      -2.079030   -0.427212   -0.023009
H       1.372826   -1.527197   -0.984133
H       3.473696   -0.628238    0.291589
H       2.796258    0.957381   -0.112675
H       2.472114   -0.649753    2.446970
H       1.718351    0.935725    2.220412
H      -0.494639   -1.471953    2.831403
H      -0.723960   -2.425352    1.364585
H       0.753601   -2.609182    2.315881
