17

N      -0.969931    1.507267   -1.463123
C      -0.209686    0.805320   -0.426926
C      -1.252113   -0.043026    0.347363
O      -1.821180   -1.051747   -0.454397
C      -0.723713   -0.576101    1.623036
N      -0.317788   -0.991352    2.622535
C       0.971649    0.011624   -0.987414
C       1.703146   -1.079068   -0.327376
O       0.753915   -1.358673   -1.374457
H      -0.348626    2.040535   -2.063310
H      -1.440005    0.820680   -2.047399
H       0.194878    1.556511    0.264007
H      -2.066095    0.643099    0.603685
H      -1.078616   -1.561916   -0.819656
H       1.526310    0.577803   -1.739091
H       2.740218   -1.255321   -0.606074
H       1.420454   -1.420029    0.662922
