20

N      -0.199166    1.428391   -0.138773
C      -0.029192   -0.009504   -0.024467
C       0.870505   -0.514619    1.134513
C       0.978169   -2.072730    1.207807
C       2.439724   -2.347948    1.649082
C       3.075057   -0.938244    1.783947
N       2.251108   -0.018671    0.982208
C       0.329621    0.008939    2.406308
N      -0.133631    0.411503    3.386053
H      -0.715994    1.779827    0.662499
H       0.708431    1.884667   -0.111307
H      -1.014978   -0.475988    0.070990
H       0.413375   -0.394203   -0.953913
H       0.238279   -2.502674    1.885703
H       0.782451   -2.479067    0.210452
H       2.489466   -2.906061    2.587125
H       2.963414   -2.939996    0.893240
H       3.043637   -0.604242    2.826611
H       4.115770   -0.893189    1.455718
H       2.498384   -0.128769    0.000771
