19

O       0.017881    1.433723    0.212523
C      -0.042842    0.038032    0.057349
C      -1.458019   -0.559192   -0.172122
C      -2.204405    0.238288   -1.256137
C      -1.480871   -0.254217   -2.545710
C      -0.447901   -1.233355   -1.951566
O      -1.129832   -1.798993   -0.825195
C       0.688637   -0.457388   -1.251696
O       1.155340    0.635121   -2.039453
H       0.323124    1.776336   -0.641042
H       0.401266   -0.426363    0.943764
H      -2.020405   -0.764721    0.738260
H      -3.265153   -0.020013   -1.264828
H      -2.112866    1.313079   -1.090930
H      -2.162528   -0.789486   -3.209997
H      -1.008640    0.548798   -3.112934
H      -0.114038   -2.028521   -2.617878
H       1.515512   -1.132348   -1.014223
H       2.075854    0.799984   -1.815343
