19

O       0.012088    1.412607   -0.087182
C       0.051146    0.004080    0.030380
C      -1.351454   -0.587861    0.048009
O      -1.972562   -0.182582   -1.183617
C      -3.299892   -0.636920   -1.267491
O      -3.382218   -2.037814   -1.243879
C      -2.864826   -2.558923   -0.019458
C      -1.403245   -2.122698    0.138085
O      -0.592948   -2.731799   -0.851907
H      -0.539794    1.599829   -0.855267
H       0.624055   -0.464061   -0.780992
H       0.554770   -0.227196    0.974769
H      -1.915217   -0.151929    0.889719
H      -3.893428   -0.211000   -0.437119
H      -3.695965   -0.305970   -2.229442
H      -3.471254   -2.210500    0.832040
H      -2.935465   -3.646459   -0.088397
H      -1.014610   -2.453384    1.107785
H      -0.989263   -2.501355   -1.701587
