19

O       0.009937   -0.096724   -0.004343
C       0.024253    1.111877    0.025896
C      -1.264303    1.930347    0.056421
C      -1.536912    2.801809   -1.191588
C      -0.461514    3.862740   -1.487978
C       0.776337    3.265134   -2.132665
O       2.061878    3.666753   -1.644259
C       1.644915    2.318900   -1.417139
C       1.339619    1.892398    0.012682
H      -2.086236    1.223840    0.198241
H      -1.226160    2.586658    0.936829
H      -1.664143    2.152252   -2.066751
H      -2.500685    3.299371   -1.038918
H      -0.875682    4.625764   -2.155871
H      -0.172110    4.380369   -0.567316
H       0.731104    3.171869   -3.218907
H       2.182915    1.577324   -2.006902
H       1.268722    2.785529    0.638846
H       2.132976    1.248632    0.398823
