19

O       0.239886    1.296469   -0.439318
C       0.058596   -0.087160   -0.126713
C       0.878695   -0.427772    1.101036
C       0.926340    0.271568    2.234371
C       0.172354    1.549560    2.550083
O      -1.233682    1.373247    2.721623
C      -2.052188    1.526713    1.569172
C      -2.293739    0.243545    0.791033
C      -1.401055   -0.453502    0.085046
H      -0.401473    1.514522   -1.124326
H       0.439444   -0.692352   -0.963285
H       1.437552   -1.357747    1.035929
H       1.547043   -0.120009    3.037442
H       0.523826    1.939124    3.510757
H       0.369687    2.304658    1.782174
H      -3.012666    1.888101    1.950961
H      -1.639812    2.303339    0.914067
H      -3.302035   -0.159910    0.856980
H      -1.714084   -1.391494   -0.368749
