21

C      -0.134333    1.563551   -0.076352
C      -0.071649    0.057986   -0.260102
O      -1.265361   -0.504964    0.284354
C      -1.372205   -1.864460    0.127855
C      -1.697797   -2.534290   -1.195720
C      -2.602220   -2.713362   -0.004977
O      -2.089023   -3.723832    0.866256
C      -0.912828   -2.905461    1.162092
C       0.395020   -3.655340    1.025995
H       0.766604    2.033796   -0.481495
H      -1.005268    1.976851   -0.592922
H      -0.212608    1.818981    0.984139
H       0.009920   -0.207782   -1.324097
H       0.809199   -0.358979    0.250939
H      -2.072174   -1.837644   -1.940275
H      -1.134428   -3.378022   -1.583743
H      -3.661816   -2.491255    0.026274
H      -1.020106   -2.484653    2.170704
H       0.548472   -4.014750    0.004916
H       1.233700   -3.005717    1.299087
H       0.405834   -4.519940    1.697415
