17

C       0.636029    0.752309   -1.033468
C      -0.397701   -0.360987   -1.033011
O       0.160866   -1.602328   -1.526349
C       0.855026   -2.345180   -0.660658
N       1.005041   -2.080278    0.563966
O       1.380994   -3.453985   -1.257502
C       1.191132   -3.646140   -2.655927
C       2.023244   -2.751665   -3.472941
N       2.681801   -2.065224   -4.127601
H       1.435372    0.532291   -0.323088
H       1.066683    0.882579   -2.030137
H       0.158835    1.691745   -0.736759
H      -0.796958   -0.538264   -0.032333
H      -1.216950   -0.149510   -1.723906
H       1.565239   -2.795488    1.020001
H       1.487927   -4.680400   -2.846247
H       0.143327   -3.519181   -2.938724
