15

O       0.122617    1.366937   -0.592915
C       0.114766    0.048173   -0.142110
C      -1.262358   -0.715382   -0.057954
C      -0.629900   -1.973219   -0.517190
N      -1.807216   -1.522086   -1.228345
C      -1.329458   -1.260298   -2.617217
C       0.104927   -0.792211   -2.413452
C       0.462445   -1.083255   -1.146879
H       0.842170    1.839785   -0.166101
H       0.580741   -0.036623    0.849612
H      -1.976981   -0.573461    0.746191
H      -0.541946   -2.939990   -0.037708
H      -1.497682   -2.182596   -3.187493
H      -1.899472   -0.458792   -3.100692
H       0.464041    0.094168   -2.925618
