17

O      -0.031721    0.108580   -0.667973
C       0.013617    1.186183   -0.127333
C      -1.230727    1.857069    0.465656
C      -1.053375    3.347647    0.776839
O      -1.990456    4.076496    0.991865
C       0.388670    3.812578    0.771688
C       1.013088    3.412046   -0.603716
C       1.282321    2.002259    0.014405
C       1.304295    2.717626    1.399974
H      -2.102411    1.693815   -0.172732
H      -1.455683    1.349334    1.413953
H       0.460303    4.845451    1.110558
H       0.392379    3.480896   -1.500789
H       1.950879    3.945396   -0.772049
H       2.146797    1.429029   -0.318581
H       2.297507    3.119379    1.611631
H       0.944265    2.173200    2.276586
