16

C      -0.187918    1.438115    0.339967
N       0.005606    0.022995    0.061086
C       0.620606   -0.667061    0.923544
C       0.939380   -2.160850    0.848770
N       1.663189   -2.496960    2.082944
C       1.743437   -1.398526    2.741328
N       1.171297   -0.286789    2.154326
C       2.405663   -1.284867    4.063735
O       2.467928   -0.239226    4.664537
H       0.767120    1.974509    0.450809
H      -0.732422    1.900579   -0.486370
H      -0.771820    1.605292    1.258265
H       0.028734   -2.764745    0.768476
H       1.553796   -2.399503   -0.026422
H       1.171588    0.627020    2.574551
H       2.828544   -2.234651    4.439804
