19

C       0.138133    1.465851   -0.195462
C      -0.029810   -0.029061    0.073104
O       0.490984   -0.787389   -1.028962
C       1.418120   -1.776008   -0.577368
C       2.746643   -1.639890   -1.349437
C       2.555552   -1.795069   -2.843485
O       3.150204   -2.591388   -3.525202
C       1.539569   -1.533756    0.903790
C       0.725167   -0.551183    1.267231
H       1.197566    1.729440   -0.264012
H      -0.350506    1.734892   -1.136011
H      -0.317984    2.053623    0.608031
H      -1.106551   -0.248585    0.170722
H       1.003334   -2.778326   -0.778823
H       3.147947   -0.636910   -1.154035
H       3.470936   -2.386198   -1.009461
H       1.803895   -1.105290   -3.282056
H       2.201898   -2.106958    1.539960
H       0.584428   -0.158664    2.266498
