15

N       0.279281    0.108460    1.021009
C       0.030772    0.162674   -0.313076
O       0.525297    0.982639   -1.060910
C      -1.004941   -0.857439   -0.826868
C      -0.921434   -2.238064   -0.260195
N      -0.815263   -3.314345   -1.024812
N      -0.785340   -4.317662   -0.113485
C      -0.867093   -3.823064    1.133559
N      -0.958822   -2.509084    1.084184
H       0.963572    0.743685    1.396846
H      -0.083826   -0.646797    1.585444
H      -1.994355   -0.437448   -0.603827
H      -0.900511   -0.901122   -1.910277
H      -0.706623   -5.272985   -0.421424
H      -0.859041   -4.436494    2.021811
