20

C       0.441963    1.282141   -0.253208
C       0.389306   -0.224324    0.007993
C       0.429397   -0.570039    1.501068
C       0.498905   -2.086337    1.773603
C       1.987535   -2.315055    1.826186
C       2.655235   -0.979093    2.055346
O       1.597507   -0.034302    2.142675
N       2.534760   -3.449291    1.662288
O       3.936709   -3.338543    1.763537
H       1.339916    1.717075    0.193170
H       0.448185    1.498991   -1.325389
H      -0.425264    1.788381    0.185638
H      -0.528600   -0.652097   -0.415404
H       1.223637   -0.725905   -0.500379
H      -0.425744   -0.104784    2.002913
H       0.049544   -2.318638    2.746002
H       0.004339   -2.697278    1.016061
H       3.233785   -0.957158    2.985538
H       3.349858   -0.754416    1.232114
H       4.225148   -4.244039    1.608427
