16

N      -0.020966    1.332228    0.035904
C       0.041131   -0.033722    0.019012
O       1.100163   -0.636308    0.018398
C      -1.278312   -0.730669    0.017962
C      -1.368478   -2.066795    0.005357
C      -2.782575   -2.561079    0.011006
C      -3.613774   -1.266788    0.031076
O      -4.811937   -1.192425    0.040886
C      -2.637676   -0.072498    0.035547
H       0.845962    1.841098   -0.017649
H      -0.883939    1.838312   -0.052022
H      -0.497740   -2.710657   -0.005923
H      -3.042070   -3.163834   -0.869174
H      -3.027959   -3.182121    0.882474
H      -2.822180    0.546857    0.923047
H      -2.839793    0.562603   -0.837366
