21

C      -0.142695    1.513546   -0.017713
N       0.187710    0.088136    0.036751
C       0.812610   -0.464860   -1.159046
C       2.195652    0.098310   -1.501467
C       0.706990   -2.025602   -1.241235
C       0.085682   -2.803176   -0.105707
O      -0.215228   -1.892422   -2.382161
C      -0.148287   -0.524102   -2.342789
N      -0.693317    0.342590   -3.070142
H       0.727059    2.184959   -0.100141
H      -0.790527    1.696701   -0.877426
H      -0.689148    1.779269    0.892023
H       0.793326   -0.090420    0.832745
H       2.890397   -0.068679   -0.669660
H       2.612080   -0.377922   -2.394557
H       2.139148    1.172542   -1.694510
H       1.631651   -2.495686   -1.592062
H      -0.806323   -2.296801    0.265604
H      -0.178691   -3.809150   -0.445430
H       0.799846   -2.904707    0.719209
H      -1.283100   -0.090992   -3.783481
