19

O       0.054410    1.486646   -0.089008
C       0.115588    0.067350    0.018163
C       0.816141   -0.387021    1.304387
C       0.043685    0.066552    2.554867
C      -1.449196   -0.061607    2.392265
C      -2.053455   -0.336151    1.235616
C      -1.299649   -0.544576   -0.053392
C      -2.035699    0.001094   -1.267772
O      -3.157312    0.436547   -1.259444
H      -0.590576    1.801529    0.555422
H       0.697452   -0.253235   -0.853009
H       0.890626   -1.481125    1.290823
H       1.835807    0.009025    1.321811
H       0.374495   -0.505860    3.429815
H       0.289972    1.112161    2.790697
H      -2.052668    0.101135    3.282519
H      -3.135517   -0.388680    1.173585
H      -1.186792   -1.624080   -0.257411
H      -1.445591   -0.052830   -2.210730
