15

O       0.065055    1.286176    0.132837
C       0.032560   -0.111987   -0.034864
C      -1.422046   -0.538588   -0.204739
C      -1.344366   -0.407163   -1.676200
C       0.215659   -0.559378   -1.517945
C      -0.072642   -2.071721   -1.456027
C       0.698580   -2.916994   -0.544649
N       1.324021   -3.572365    0.173426
N      -1.500647   -1.765195   -1.072863
H       0.986124    1.557676    0.198973
H       0.644742   -0.625896    0.717256
H      -2.253194   -0.371797    0.466274
H      -2.000923   -0.000002   -2.431477
H       1.008509   -0.140006   -2.133656
H      -0.094463   -2.538939   -2.444107
