19

C       0.885134    1.425183    0.263699
N       0.546304    0.010754    0.183040
C       0.208578   -0.458153   -0.941710
C      -0.176656   -1.911716   -1.111759
C       0.453989   -2.493888   -2.368471
N      -0.461365   -2.790551   -3.483198
C       0.412795   -1.602830   -3.555055
C      -0.266182   -0.273639   -3.296126
O       0.188854    0.319802   -2.066363
H       1.054351    1.691873    1.309948
H       1.799028    1.654638   -0.300451
H       0.092335    2.068958   -0.138862
H       0.116601   -2.440475   -0.205135
H      -1.266256   -1.991053   -1.208179
H       1.323449   -3.130472   -2.234228
H      -0.073727   -3.533189   -4.059951
H       1.245603   -1.610588   -4.251427
H      -0.037475    0.468128   -4.063898
H      -1.351620   -0.418879   -3.262612
