19

C       0.590594   -0.727383    1.212317
C      -0.030928   -0.168531   -0.069643
C       0.810989   -0.443212   -1.359693
N       2.176006    0.028809   -1.375495
C       2.378642    1.437126   -1.081049
C       0.816814   -1.939301   -1.614025
O       1.771621   -2.659123   -1.463563
C      -0.484513   -2.508593   -2.029939
N      -1.501554   -2.945635   -2.364684
H       0.688962   -1.817221    1.177809
H       1.587570   -0.311739    1.388457
H      -0.029486   -0.478177    2.077789
H      -1.038716   -0.574487   -0.215593
H      -0.153046    0.916285    0.012639
H       0.265104    0.022644   -2.194460
H       2.771271   -0.576989   -0.825007
H       1.823392    2.045458   -1.804547
H       2.071813    1.757458   -0.071551
H       3.439624    1.673661   -1.200139
