17

C       0.582124    0.431517   -0.333595
C      -0.762838    1.032461    0.025322
O      -0.957287    2.226161    0.058924
C      -1.924881    0.113065    0.324100
O      -1.809649   -1.286450    0.061140
C      -1.948888   -0.887440    1.420305
C      -0.815812   -1.155047    2.352810
C      -0.951869   -0.869036    3.788117
O      -1.042367   -2.204483    3.297459
H       1.067524    1.075323   -1.069686
H       1.221810    0.414825    0.556576
H       0.487018   -0.588214   -0.708930
H      -2.879905    0.565310    0.057279
H      -2.923749   -1.107164    1.859075
H       0.177185   -1.157595    1.909107
H      -0.063002   -0.637164    4.372226
H      -1.880869   -0.444738    4.166694
