22

C      -0.083168    1.572486   -0.040878
C       0.052470    0.075630    0.142252
N       1.225283   -0.733007   -0.267371
C       2.444809    0.068603    0.097420
C       2.106622    0.027538    1.604042
C       3.048461   -0.860141    2.412083
O       2.027628    1.318484    2.193423
C       0.781560   -0.665162    1.202012
C       0.168317   -1.835679    1.920806
H       0.709855    2.139893    0.441871
H      -0.109985    1.820398   -1.108369
H      -1.033172    1.900653    0.394763
H      -0.848439   -0.453828   -0.168296
H       3.348632   -0.484204   -0.167029
H       2.490801    1.063853   -0.350955
H       4.024583   -0.372847    2.493729
H       2.662898   -1.026530    3.425775
H       3.185850   -1.838494    1.943171
H       1.775806    1.214344    3.117607
H      -0.349478   -1.508480    2.831130
H      -0.567644   -2.331246    1.281212
H       0.915210   -2.581430    2.209560
