16

O       1.209086    0.138332    0.439055
C       0.988432    1.291638    0.190665
C       1.010121    1.859984   -1.228193
N       1.102148    3.304542   -1.239177
C       2.225171    3.931107   -0.789826
N       3.155064    3.275895   -0.212313
C       4.319446    3.962052    0.307841
C       4.375324    5.418118    0.081705
N       4.362968    6.555360   -0.125933
H       0.703836    2.029729    0.972517
H       1.834247    1.382497   -1.771567
H       0.070584    1.571212   -1.712131
H       0.485114    3.827277   -1.835624
H       2.230875    5.014303   -0.953245
H       4.392582    3.785336    1.388957
H       5.223797    3.518062   -0.127531
