22

C       0.751293    1.942264    0.221191
C       0.250462    0.494167    0.082821
C       0.830107   -0.132722   -1.172105
C       0.041418   -0.935136   -2.114870
O       0.393781    0.416614   -2.417653
C       0.639650   -0.312634    1.313033
C      -0.174816   -0.266020    2.561744
N      -0.057684   -1.503863    1.800897
C      -1.250211   -1.999186    1.132449
H       1.838205    1.969429    0.360705
H       0.511678    2.514008   -0.679101
H       0.291228    2.433755    1.083111
H      -0.839157    0.517874   -0.023906
H       1.906314   -0.320323   -1.130312
H       0.528935   -1.694127   -2.725512
H      -1.016222   -1.107532   -1.920944
H       1.721509   -0.397218    1.431113
H       0.294218   -0.252904    3.542498
H      -1.121212    0.273586    2.506386
H      -1.937541   -1.218054    0.770017
H      -0.958874   -2.624869    0.282955
H      -1.805737   -2.625846    1.837763
