20

C       0.051077    1.538626   -0.162438
C       0.006664    0.027472    0.105842
C      -1.395601   -0.520249    0.111966
C      -2.431951   -0.243977    1.216773
C      -2.944331   -1.712627    1.104193
C      -1.922016   -1.977799   -0.005790
C      -2.097670   -0.984052   -1.120918
O      -3.340422   -0.439540   -1.472173
H       1.079574    1.912659   -0.148275
H      -0.384229    1.776434   -1.138368
H      -0.515411    2.090430    0.595104
H       0.600631   -0.498893   -0.652125
H       0.485217   -0.186747    1.071125
H      -1.960001   -0.042559    2.181917
H      -3.157636    0.543399    1.000915
H      -2.748364   -2.293765    2.007522
H      -3.994744   -1.839505    0.825590
H      -1.370003   -2.900866   -0.150462
H      -1.429052   -1.149516   -1.968010
H      -3.868087   -1.138536   -1.872701
