19

C       0.249381    1.447805   -0.329843
C      -0.078563    0.041267    0.151330
O       0.154951   -0.892008   -0.926224
C       1.277617   -1.629181   -0.719858
O       1.661334   -2.451800   -1.498198
C       1.908151   -1.203630    0.600817
C       0.759088   -0.505336    1.338298
C       1.184277    0.531227    2.373807
O      -0.096302   -1.481956    1.936993
H       1.315567    1.561985   -0.551119
H      -0.307746    1.654618   -1.246918
H      -0.032682    2.193303    0.418630
H      -1.137143   -0.040302    0.410516
H       2.313588   -2.066545    1.132481
H       2.739245   -0.522233    0.386894
H       1.818179    1.310965    1.943556
H       0.305464    1.000257    2.825915
H       1.754139    0.046740    3.174806
H       0.406289   -1.946720    2.614845
