23

C      -0.060649    1.573065    0.021086
C       0.031213    0.045739    0.002668
C       0.725689   -0.474439   -1.266894
C       0.803673   -2.007432   -1.283852
C       1.478068   -2.567935   -0.025171
O       2.866489   -2.192255    0.039098
C       0.821386   -2.026155    1.248705
C       0.750156   -0.489588    1.264569
O       2.039090    0.091166    1.423446
H       0.939341    2.011750    0.076630
H      -0.558908    1.951489   -0.877798
H      -0.625919    1.924176    0.891346
H      -0.989696   -0.366432    0.022269
H       0.197500   -0.118078   -2.158120
H       1.736737   -0.052056   -1.315379
H      -0.206834   -2.432661   -1.346240
H       1.337780   -2.362405   -2.176086
H       1.409434   -3.665783   -0.032214
H       3.272870   -2.381232   -0.812954
H      -0.191171   -2.440618    1.317807
H       1.381106   -2.375309    2.122424
H       0.173057   -0.175035    2.144138
H       2.659561   -0.470908    0.939436
