19

C      -0.024216    1.602713    0.010963
C      -0.059098    0.073842   -0.040540
C       0.787584   -0.503014   -1.192296
C       0.758348   -1.995543   -1.272163
N       1.721868   -2.769753   -0.766055
N       1.315306   -3.999063   -1.032812
N       0.149377   -4.115054   -1.676385
C      -0.222334   -2.846685   -1.840369
N      -1.369149   -2.490499   -2.546782
H       0.999001    1.968746    0.149902
H      -0.407294    2.040898   -0.917580
H      -0.630668    1.987704    0.836521
H       0.304495   -0.342799    0.906009
H      -1.098443   -0.267926   -0.140086
H       0.434334   -0.085141   -2.144412
H       1.827277   -0.181007   -1.072013
H       1.865536   -4.805473   -0.792208
H      -1.974497   -3.285777   -2.704865
H      -1.886295   -1.734015   -2.119563
