21

C       0.023237    1.323899   -0.246535
O       0.264098   -0.060186   -0.150817
C       0.545378   -0.491099    1.171498
C       0.586258   -1.998316    1.129841
O      -0.613807   -2.540551    0.648243
C       1.870004   -2.723503    0.798058
C       1.255192   -2.831932    2.180916
C       1.940399   -2.261701    3.394678
O       2.896064   -3.216789    3.838102
H       0.899353    1.911754    0.068432
H      -0.192221    1.547189   -1.294222
H      -0.836369    1.632146    0.368849
H       1.496785   -0.064329    1.522214
H      -0.253592   -0.153317    1.852314
H      -0.793329   -2.074759   -0.178477
H       1.795164   -3.584988    0.145425
H       2.780633   -2.141911    0.693591
H       0.732415   -3.763392    2.377901
H       2.428370   -1.305072    3.149245
H       1.196250   -2.056026    4.181140
H       3.278074   -2.896097    4.660587
