17

C      -0.003231    1.510773    0.010265
O       1.196026    0.690761   -0.006011
C      -0.054521    0.059166    0.002926
C      -0.568990   -1.022150    0.969976
C      -1.809544   -1.104513    0.013972
C      -0.588104   -1.011692   -0.965400
C       0.098498   -2.012260   -0.009777
C       1.304323   -2.818315   -0.026040
O      -0.026361   -3.407485   -0.016082
H      -0.167066    2.062620    0.934429
H      -0.185228    2.072560   -0.904464
H      -0.553152   -1.025743    2.058110
H      -2.339983   -2.056242    0.014067
H      -2.487941   -0.249113    0.025293
H      -0.593756   -1.003527   -2.053610
H       1.859300   -2.956636   -0.952058
H       1.877463   -2.966574    0.887289
