16

O       0.014924    1.330273   -0.030572
C      -0.013981   -0.079034   -0.023763
C       0.278685   -0.723962    1.375091
C      -1.183912   -1.176557    1.454484
C      -1.470525   -0.540980    0.087762
C      -1.509839   -2.034377    0.245319
O      -0.550716   -2.807931   -0.414455
C      -2.834963   -2.625629    0.259198
N      -3.874130   -3.132612    0.280177
H       0.934887    1.609783   -0.077753
H       0.546485   -0.500746   -0.865667
H       1.039336   -1.507018    1.427381
H       0.496978    0.061942    2.100331
H      -1.802543   -1.216072    2.342623
H      -2.323775    0.022722   -0.267105
H      -0.411306   -3.617262    0.091344
