21

C       0.024808    1.468514   -0.030698
C       1.338127    0.723763   -0.002913
O       2.125777    0.486572   -1.130011
C       2.380323   -0.927106   -1.224463
C       1.098644   -1.786099   -0.986719
C       0.840830   -2.197550    0.503962
C      -0.072953   -1.072606    1.113742
C       0.037834   -0.036237    0.013466
C      -0.088197   -0.850060   -1.269958
H      -0.217172    2.039603    0.860224
H      -0.302251    1.926958   -0.958122
H       1.901696    0.779053    0.931068
H       2.761710   -1.080450   -2.238561
H       3.174345   -1.209983   -0.515427
H       1.150194   -2.667952   -1.631204
H       0.349363   -3.173918    0.550087
H       1.781087   -2.289300    1.056879
H      -1.099036   -1.430065    1.258100
H       0.290767   -0.713955    2.080454
H       0.026462   -0.264286   -2.182793
H      -1.041545   -1.387456   -1.311472
