17

C      -0.019987    1.516901   -0.011979
C      -0.034878    0.017863   -0.001486
C      -1.168097   -0.729442   -0.112095
C      -1.162305   -2.160499   -0.092642
N      -2.373688   -2.858949   -0.285257
C       0.045315   -2.775623    0.038294
N       1.193340   -2.025986    0.126908
C       1.266998   -0.635890    0.126907
O       2.344986   -0.060345    0.225746
H       0.605850    1.889154   -0.830157
H      -1.027036    1.927915   -0.117526
H       0.429611    1.903959    0.908877
H      -2.127236   -0.228520   -0.227016
H      -3.141262   -2.455098    0.237674
H      -2.302477   -3.842172   -0.055830
H       0.170758   -3.850990    0.067243
H       2.087168   -2.487683    0.215815
