16

O       0.065609    1.419905   -0.267401
C       0.029750    0.042104   -0.064782
C      -0.486230   -0.894772   -1.140833
C      -1.294942   -0.606679    0.105369
O      -1.462118   -1.556725    1.131271
C      -0.411859   -2.293816    1.554676
N      -0.624018   -3.330302    2.239655
O       0.834600   -1.881889    1.177837
C       1.056768   -0.492907    0.910026
H       0.755505    1.613032   -0.912749
H      -0.852652   -0.442354   -2.055555
H      -0.016047   -1.865110   -1.251616
H      -2.196712   -0.015528    0.013396
H       0.264868   -3.730744    2.531549
H       2.076025   -0.434202    0.516414
H       1.006721    0.089922    1.839042
