19

O      -0.103435    1.307895    0.135071
C      -0.011561   -0.104387    0.235987
C      -1.419789   -0.647416    0.081723
C      -2.114427   -0.544823   -1.298700
C      -2.752655   -1.935064   -1.038549
O      -2.929768   -2.842542   -2.080502
C      -1.661363   -2.209945    0.056776
C      -0.467188   -2.973237   -0.434975
O      -0.201782   -3.173602   -1.601727
H       0.786285    1.672376    0.154602
H       0.640240   -0.518191   -0.549607
H       0.407505   -0.409795    1.209745
H      -2.046084   -0.212657    0.866055
H      -2.778295    0.302447   -1.476217
H      -1.383061   -0.604006   -2.110618
H      -3.726135   -1.825645   -0.550431
H      -2.047798   -3.033733   -2.430073
H      -1.987908   -2.642396    1.007650
H       0.212312   -3.358329    0.357325
