18

C      -0.033315    1.479696    0.070602
O       1.406680    1.575330    0.214273
C       1.595691    0.191219   -0.129120
C       1.670555   -0.767801    1.074841
N       0.185057   -0.783647    1.179302
C      -0.513599   -2.070066    1.046606
C      -1.124932   -2.020276   -0.336101
C      -0.801600   -0.894687   -0.976529
C       0.050995   -0.044644   -0.113400
H      -0.570689    1.818175    0.962219
H      -0.378557    2.030616   -0.814984
H       2.279031    0.051177   -0.969960
H       2.094040   -1.744972    0.798150
H       2.183907   -0.387235    1.963246
H       0.188108   -2.913098    1.152302
H      -1.279111   -2.207894    1.824647
H      -1.753162   -2.812657   -0.727146
H      -1.115487   -0.613812   -1.974341
