19

C      -0.094504    1.686716    0.079024
C      -0.009817    0.175127   -0.160447
C      -1.380116   -0.496299   -0.063363
C      -1.514145   -2.045601   -0.134619
C      -0.279434   -2.916053   -0.213176
O      -2.096900   -2.046061    1.217569
C      -1.970333   -0.678835    1.322008
N      -2.248862    0.093620    2.272028
H       0.898234    2.144595    0.036350
H      -0.719733    2.170609   -0.679600
H      -0.533389    1.896490    1.058127
H       0.414382   -0.025620   -1.152452
H       0.675008   -0.271490    0.568778
H      -2.083310    0.005342   -0.736299
H      -2.273254   -2.383717   -0.847188
H       0.471828   -2.615873    0.521450
H      -0.544905   -3.960307   -0.023421
H       0.165169   -2.855243   -1.212024
H      -2.626598   -0.421479    3.069521
