15

C      -0.092866    1.428637   -0.015177
N       0.188632    0.003209   -0.029492
C       0.062768   -0.712706    1.227682
C       0.035543   -0.702472   -1.182382
N      -0.089457   -2.018175   -1.216267
O      -0.134954   -2.290419   -2.605376
C      -0.058499   -1.115574   -3.214209
N       0.043911   -0.094201   -2.428651
H       0.551022    1.915675    0.723982
H       0.111990    1.848605   -0.998830
H      -1.140295    1.641752    0.247868
H      -0.987001   -0.878367    1.512444
H       0.550446   -1.685373    1.145068
H       0.549998   -0.132322    2.016140
H      -0.086559   -1.115871   -4.294682
