17

O       0.020775    0.002973   -0.206101
C      -0.006973    1.217674   -0.149116
C      -1.265134    1.958882    0.057080
C      -1.363452    3.287024   -0.080965
C      -0.226075    4.183136   -0.475564
C       1.148187    3.567451   -0.258440
O       1.563629    3.648292    1.124295
C       1.929327    2.255737    1.143084
C       1.277433    2.022542   -0.245930
H      -2.130781    1.346229    0.288775
H      -2.332552    3.763806    0.051631
H      -0.350676    4.466664   -1.530965
H      -0.268033    5.122220    0.090141
H       1.888659    4.053898   -0.907714
H       3.017066    2.111953    1.153245
H       1.486981    1.721249    1.990670
H       1.925615    1.571203   -0.997165
