17

C       0.249869    1.571076    0.014629
C      -0.053741    0.068980   -0.026184
C       0.526796   -0.551707   -1.299248
O       0.146885   -1.909110   -1.471471
C       0.867036   -2.789375   -0.686755
O       0.466908   -2.860857    0.679401
C       0.525511   -1.752583    1.472338
N       0.365275   -0.526037    1.235999
H       1.330688    1.746484    0.041540
H      -0.162295    2.083977   -0.860128
H      -0.181230    2.011883    0.915724
H      -1.144299   -0.066705   -0.083442
H       0.145585   -0.017244   -2.174204
H       1.625534   -0.466783   -1.293380
H       0.694349   -3.794554   -1.074213
H       1.940850   -2.540688   -0.711471
H       0.707502   -2.071750    2.499311
