19

O       0.047938    1.456976   -0.022583
C      -0.011990    0.046964   -0.001149
C       0.659104   -0.509994    1.270593
N       1.043704    0.517956    2.250084
C      -0.123774   -0.352563    2.520513
C      -1.502577    0.273492    2.357890
N      -2.222324   -0.380970    1.245894
C      -2.608785    0.451157    0.102838
C      -1.454268   -0.472527   -0.007590
H       0.551969    1.707353    0.771172
H       0.502441   -0.350169   -0.886879
H       1.297692   -1.379220    1.149767
H       1.854379    0.226481    2.787820
H      -0.006949   -1.103859    3.295895
H      -2.096668    0.133718    3.266070
H      -1.383029    1.352033    2.200658
H      -3.561452    0.200385   -0.356579
H      -2.370244    1.510543    0.140871
H      -1.576558   -1.422822   -0.525719
