19

C       0.063262    1.550467    0.155997
C       0.012849    0.028835    0.011683
C       0.719787   -0.491314   -1.237527
O       2.091958   -0.147617   -1.183896
C       2.773110   -1.112664   -1.976464
C       1.847307   -2.356018   -1.930797
O       0.692153   -1.909270   -1.226455
C       0.111729    0.015179   -2.491986
C      -0.376967    0.415263   -3.514795
H       1.097312    1.901978    0.201460
H      -0.426970    2.044625   -0.687815
H      -0.445322    1.861775    1.072771
H       0.500483   -0.461499    0.859732
H      -1.021858   -0.326169   -0.024814
H       2.904399   -0.751074   -3.003833
H       3.755092   -1.282517   -1.529143
H       1.583661   -2.698427   -2.938560
H       2.277692   -3.192472   -1.373321
H      -0.812332    0.770258   -4.416556
