18

C       0.006660    1.431748   -0.150980
N      -0.102359   -0.009667   -0.241847
C      -1.144596   -0.697682    0.285921
O      -2.076858   -0.176770    0.879252
C      -1.091453   -2.203686    0.094577
C      -1.724718   -3.007829    1.235731
C      -2.464321   -2.870966   -0.046630
C       0.022627   -2.772162   -0.608611
C       0.967752   -3.225559   -1.202088
H       0.912300    1.728618    0.389749
H       0.026860    1.892350   -1.145034
H      -0.867262    1.793595    0.391800
H       0.616852   -0.535813   -0.712890
H      -1.256455   -3.955175    1.473022
H      -2.063174   -2.411527    2.074085
H      -3.300065   -2.182541   -0.070568
H      -2.518385   -3.721644   -0.714805
H       1.793993   -3.642159   -1.723075
