14

N      -0.045044   -3.811989   -0.111741
C      -0.033312   -2.650500   -0.080016
C      -0.017731   -1.286624   -0.041046
C      -0.003416   -0.077490   -0.006028
C       0.009652    1.362313    0.031774
C       0.123641    2.144409    1.388089
C       1.592860    1.689658    1.542351
C       1.356031    2.167269    0.091490
O       0.589943    3.312827    0.617718
H      -0.716584    1.808415   -0.650633
H      -0.653190    2.299745    2.135641
H       2.212401    2.354795    2.142939
H       1.794919    0.631505    1.715748
H       2.060222    2.350078   -0.719143
