19

C      -0.069554    1.466262   -0.077443
C       0.012101   -0.045007    0.050756
C      -1.170292   -0.753755   -0.584301
N       1.353330   -0.608919   -0.091524
C       0.743193   -0.646649    1.250078
C       1.368097    0.194611    2.347228
C       0.290263   -1.986554    1.726826
O       0.233719   -2.981381    1.039590
H       0.859528    1.954200    0.216550
H      -0.262176    1.730728   -1.123140
H      -0.891382    1.869942    0.523624
H      -1.180482   -0.541752   -1.659709
H      -1.131669   -1.834674   -0.451492
H      -2.114186   -0.381718   -0.170853
H       1.290419   -1.553522   -0.476192
H       1.678954    1.171730    1.980651
H       0.662651    0.346145    3.171984
H       2.256451   -0.302690    2.751848
H       0.019062   -2.026010    2.804503
