20

C      -0.019745    1.610333    0.031207
C       0.005515    0.088926    0.133663
O       0.570201   -0.235595    1.389496
C      -1.400256   -0.519200   -0.024417
C      -1.378616   -2.055148   -0.149340
O      -0.686622   -2.660837    0.923146
C      -2.800758   -2.639189   -0.161058
N      -3.570512   -2.362383   -1.238179
O      -3.184410   -3.308114    0.785864
H       0.982888    2.007621    0.210481
H      -0.352627    1.936862   -0.959076
H      -0.690829    2.032515    0.786252
H       0.637569   -0.304980   -0.685178
H       0.388534   -1.174941    1.538098
H      -2.004259   -0.233751    0.845614
H      -1.881286   -0.096119   -0.915521
H      -0.871832   -2.329267   -1.087438
H      -1.380982   -3.121118    1.431089
H      -3.226926   -1.832340   -2.019520
H      -4.511542   -2.719404   -1.268183
