19

C       0.002118    1.558290    0.007769
C       0.001367    0.017384    0.039839
C       0.775110   -0.511808    1.263234
C      -1.386464   -0.541423   -0.026970
C      -1.975377   -1.325399   -0.955781
N      -3.287258   -1.565543   -0.544958
C      -3.559322   -0.935188    0.661048
O      -4.591963   -0.931333    1.302208
N      -2.353989   -0.305738    0.956385
H       1.026788    1.943092    0.007040
H      -0.509055    1.933759   -0.882920
H      -0.505572    1.975405    0.884767
H       0.513173   -0.338754   -0.862558
H       0.304072   -0.194502    2.200409
H       0.812694   -1.604599    1.262690
H       1.800905   -0.130020    1.264969
H      -1.575765   -1.730853   -1.869328
H      -3.978527   -2.114200   -1.023365
H      -2.241510    0.242711    1.790150
