18

C       0.015489    1.548353   -0.036948
C       0.105786    0.042276   -0.044676
O       0.836070   -0.417041   -1.154211
C       1.251615   -1.730165   -0.818266
C       2.462670   -2.131057   -1.635486
C       1.506445   -1.601193    0.722763
O       0.833208   -0.413770    1.100534
C       1.014007   -2.769209    1.469224
N       0.638812   -3.702110    2.038288
H       1.019429    1.978345   -0.056861
H      -0.542794    1.891141   -0.911554
H      -0.502232    1.882983    0.864927
H      -0.894955   -0.425563   -0.035574
H       0.424436   -2.437269   -0.980645
H       3.283398   -1.425654   -1.476102
H       2.796063   -3.134030   -1.352737
H       2.214048   -2.140294   -2.699548
H       2.576020   -1.482434    0.934466
