23

C       0.303889   -0.383720    1.315491
C      -0.148661    0.031009   -0.093069
C      -0.319295    1.554868   -0.178080
C       0.767427   -0.500470   -1.227700
C       2.250396   -0.140472   -1.056361
C       0.592062   -2.033050   -1.415077
O      -0.777329   -2.411522   -1.553671
C       1.378926   -2.541475   -2.543746
C       1.977931   -2.944298   -3.505754
H       0.401186   -1.469173    1.417988
H       1.265965    0.066711    1.582180
H      -0.428659   -0.053840    2.059296
H      -1.131141   -0.420445   -0.268411
H       0.617922    2.084708    0.025691
H      -0.668437    1.863961   -1.169358
H      -1.053552    1.901598    0.556627
H       0.415710   -0.040963   -2.163242
H       2.379183    0.932604   -0.890725
H       2.695714   -0.664408   -0.203922
H       2.822952   -0.413244   -1.945883
H       0.926516   -2.538043   -0.500658
H      -1.054586   -2.164349   -2.443060
H       2.517852   -3.315853   -4.341557
