19

C       0.409731    1.610750    0.158646
C       0.235944    0.092694    0.090933
C      -1.233989   -0.341789    0.038905
O      -1.794030    0.221028   -1.177375
C      -3.130036    0.381145   -1.218433
O      -3.697897    0.805881   -2.179490
C      -1.398143   -1.791978    0.057985
C      -1.527557   -2.988897    0.071803
C      -1.687820   -4.435038    0.085807
H       1.470369    1.874444    0.195394
H      -0.031690    2.094352   -0.716097
H      -0.067825    2.026269    1.053326
H       0.739012   -0.315959   -0.791504
H       0.686890   -0.388513    0.965187
H      -1.766922    0.100693    0.893217
H      -3.631248    0.089079   -0.275589
H      -2.745871   -4.717148    0.066080
H      -1.202103   -4.895232   -0.781175
H      -1.243377   -4.870618    0.987208
