20

C      -0.004111    1.619725    0.039879
C       0.050698    0.084696    0.005247
N       0.811312   -0.430961   -1.116921
C       0.445858   -0.252662   -2.499832
C       1.841186   -1.263356   -0.717818
O       2.605901   -1.853244   -1.456998
C       1.785990   -1.274349    0.767896
C       0.767741   -0.523860    1.198994
C       0.328541   -0.266942    2.603177
H       1.005469    2.036245    0.102885
H      -0.485028    2.011150   -0.861055
H      -0.582653    1.966079    0.901248
H      -0.983888   -0.297915   -0.031351
H       0.492467    0.799298   -2.806479
H       1.160993   -0.824588   -3.094728
H      -0.566896   -0.626063   -2.703019
H       2.488078   -1.842216    1.362743
H       0.931694   -0.835859    3.314499
H       0.411615    0.795623    2.861770
H      -0.723131   -0.543589    2.747225
