17

C      -0.006259    1.429198   -0.009805
N      -0.005287   -0.017895    0.081556
C      -1.102489   -0.672258    0.054958
C      -1.120246   -2.120238    0.145267
C      -2.301119   -2.757893    0.112049
N      -3.466883   -2.034939   -0.006152
C      -4.774817   -2.662566   -0.047169
N      -3.466016   -0.676756   -0.091355
N      -2.383840   -0.034368   -0.064571
H       0.606165    1.729053   -0.869742
H      -0.996757    1.885163   -0.103434
H       0.491424    1.839494    0.878187
H      -0.184163   -2.654522    0.237239
H      -2.417510   -3.833706    0.172722
H      -4.967052   -3.225685    0.872350
H      -5.512596   -1.866717   -0.144491
H      -4.856207   -3.340185   -0.903756
