18

C       0.541097    1.469911   -0.425262
C      -0.122382    0.277046    0.256362
O      -0.564496   -0.717484   -0.672601
C       0.767234   -0.352196    1.295553
N       1.651360    0.256697    2.065538
C       2.167778   -0.720046    2.881213
N       3.099171   -0.386027    3.869607
C       1.593757   -1.938716    2.599871
N       0.697603   -1.674902    1.575158
H       1.439302    1.152482   -0.967588
H      -0.153526    1.934522   -1.129730
H       0.852750    2.203641    0.321261
H      -1.049193    0.615321    0.738552
H       0.185929   -0.929316   -1.240158
H       3.542410    0.497595    3.653377
H       3.799207   -1.099406    4.022586
H       1.732215   -2.925798    3.005688
H       0.092058   -2.321230    1.098047
