16

O       0.013498    0.021436    0.016875
C      -0.008110    1.221838    0.024907
C      -1.257075    2.142363    0.030442
C      -0.582250    3.538903    0.030732
N       0.645880    3.338953   -0.779018
C       1.190509    2.203206   -0.008870
C       1.192941    2.790650    1.412852
O       1.345437    4.207228    1.480437
C       0.024107    3.678632    1.434138
H      -1.850694    1.975896   -0.874432
H      -1.895796    1.919278    0.891105
H      -1.192468    4.368131   -0.327000
H       0.402015    3.041389   -1.721114
H       2.121668    1.789322   -0.391319
H       1.547391    2.209217    2.256560
H      -0.606930    3.839119    2.302567
