17

O      -0.112114    1.325544   -0.020883
C      -0.003636   -0.058780   -0.064394
C       1.059014   -0.735244   -0.934447
C       0.430558   -2.114820   -1.281782
C      -0.689472   -2.255923   -0.255680
O      -0.097354   -2.200054    1.089024
C      -0.467173   -0.826933    1.189592
C      -1.294617   -0.836459   -0.066403
O      -2.510102   -0.343988   -0.464852
H       0.615116    1.666425    0.511523
H       1.246378   -0.127794   -1.824038
H       2.007210   -0.849963   -0.399635
H       0.000104   -2.109971   -2.289884
H       1.145717   -2.939169   -1.220488
H      -1.357231   -3.113337   -0.364403
H      -0.577692   -0.373112    2.168330
H      -3.195873   -0.727386    0.093465
