17

O      -0.672486    1.149453    0.498359
C       0.322327    0.882478   -0.113912
C       1.481179    1.854008   -0.367470
O       2.442317    1.515743   -1.014455
O       1.282304    3.043381    0.194444
C       2.326261    4.015387    0.011852
C       2.333015    4.829689   -1.300224
C       2.637169    6.088332   -0.437205
C       2.114243    5.312647    0.806800
H       0.520099   -0.106025   -0.575299
H       3.287718    3.533900    0.202706
H       3.043200    4.533394   -2.073038
H       1.327267    4.871091   -1.727661
H       3.708895    6.291802   -0.373427
H       2.121368    7.012333   -0.701645
H       1.047199    5.485570    0.968582
H       2.643398    5.420935    1.755317
