20

C      -0.055298    1.493635    0.210925
C       1.483237    1.448493   -0.029140
C       2.200642    1.190098    1.302210
C       1.462375    0.047090    2.045040
C       0.807863   -0.868220    1.002086
C       1.824934   -1.163056   -0.140454
C       1.280618    0.098084   -0.832491
C      -0.049806   -0.025513   -0.029553
H      -0.413344    1.893613    1.165888
H      -0.581129    2.005311   -0.601216
H       1.931074    2.278367   -0.580738
H       3.245126    0.916872    1.115154
H       2.220329    2.102281    1.909204
H       2.156141   -0.523471    2.672780
H       0.697185    0.454049    2.715456
H       0.308226   -1.722899    1.464035
H       2.886593   -1.226119    0.122294
H       1.552385   -2.057026   -0.710032
H       1.317382    0.199225   -1.918873
H      -0.936367   -0.533564   -0.413872
