17

C      -0.158339    0.504593   -0.696704
O       0.125803    0.844809    0.647844
C       0.728681   -0.128490    1.367411
C       1.134249   -1.412987    1.062243
C       1.710503   -1.932960    2.264901
O       2.255364   -3.174459    2.461863
C       1.642715   -0.976265    3.246183
N       2.043799   -0.928304    4.597328
N       1.028229    0.136442    2.663341
H      -0.837930   -0.355718   -0.752328
H      -0.636814    1.377197   -1.143588
H       0.760892    0.267157   -1.247792
H       1.036305   -1.917541    0.114512
H       2.190813   -3.665626    1.638645
H       3.043339   -1.074843    4.698644
H       1.584463   -1.644060    5.151864
H       0.841980    0.998418    3.145181
