17

O       0.151208    1.357898   -0.209901
C       0.147055   -0.051758   -0.145317
C      -1.229950   -0.579068    0.270332
O      -2.193295   -0.076052   -0.673064
C      -2.933634   -1.152894   -1.263625
C      -2.321660   -2.403402   -0.666946
C      -1.381372   -2.071065    0.207008
C      -4.368593   -1.030338   -0.986096
C      -5.547938   -0.946203   -0.772657
H      -0.602490    1.598831   -0.762224
H       0.424409   -0.508080   -1.109386
H       0.899178   -0.342750    0.596595
H      -1.469113   -0.174493    1.265948
H      -2.789286   -1.117461   -2.354741
H      -2.661173   -3.395062   -0.933551
H      -0.783351   -2.749735    0.801839
H      -6.589327   -0.864956   -0.579997
