19

C       0.025735    1.550106   -0.125963
C       1.583859    1.578107    0.123392
C       1.522857    0.118307    0.614657
O       1.600881   -0.292905    1.975467
C       0.917162   -1.486521    1.468925
C      -0.513527   -0.913468    1.193658
C       0.028533    0.020820    0.108580
C       0.530599   -0.971988   -0.982481
C       1.624064   -1.307465    0.048076
H      -0.524126    2.095173    0.646004
H      -0.317510    1.896773   -1.104360
H       2.189841    1.727551   -0.773694
H       1.925799    2.277082    0.889525
H       1.056286   -2.367218    2.095172
H      -1.243921   -1.648814    0.843766
H      -0.888619   -0.418258    2.091321
H      -0.157834   -1.755809   -1.311870
H       0.953638   -0.469766   -1.857067
H       2.536890   -1.876505   -0.138586
