17

N      -0.192913   -1.144701    0.163171
C      -0.111709    0.008675    0.146215
C       0.001943    1.444967    0.072441
N       0.703061    2.117817    1.187246
C       1.327691    2.116818   -0.134050
C       2.634624    1.328212   -0.301829
C       3.429320    2.184892   -1.252746
C       2.781083    3.288746   -1.619784
C       1.417841    3.397041   -0.984303
H      -0.869601    1.930493   -0.359564
H       0.246846    3.008457    1.375242
H       3.130057    1.199202    0.667678
H       2.458745    0.319671   -0.696037
H       4.423290    1.906729   -1.583767
H       3.162428    4.047111   -2.293596
H       0.614665    3.459147   -1.729739
H       1.328920    4.296271   -0.357619
