21

C       0.202084    1.424323    0.246709
C       0.208857   -0.079800   -0.037338
C       0.755163   -0.459658   -1.430001
C       2.321124   -0.368081   -1.519303
C       2.421929   -1.881007   -1.195312
C       0.932182   -2.027633   -1.587797
O       0.093877   -2.902997   -0.888469
C       0.007621    0.187673   -2.492877
C      -0.606173    0.699578   -3.392968
H       1.209809    1.849261    0.192562
H      -0.422875    1.953757   -0.477412
H      -0.189563    1.625812    1.248366
H       0.813277   -0.586564    0.727338
H      -0.808336   -0.477853    0.049445
H       2.651360   -0.133570   -2.532488
H       2.799944    0.324786   -0.824639
H       3.146463   -2.478814   -1.751570
H       2.574927   -2.063727   -0.126482
H       0.826769   -2.293656   -2.642182
H       0.221758   -2.759624    0.054929
H      -1.148212    1.152339   -4.185792
