18

N       0.001260   -1.139079    0.009282
C      -0.010331    0.018305    0.014872
C      -0.022576    1.460033    0.014944
C      -0.456000    2.178225   -1.310071
C       0.881448    2.985457   -1.311244
C       1.316620    2.282610    0.007219
C       0.929662    2.906757    1.365696
C      -0.398334    3.606798    1.319755
C      -0.379093    2.108082    1.383437
H      -0.549501    1.486273   -2.148207
H      -1.378588    2.756556   -1.232191
H       1.525938    2.741589   -2.158021
H       0.786779    4.072139   -1.254907
H       2.269104    1.755332    0.007793
H       1.630812    3.077588    2.172935
H      -0.688489    4.082937    2.251004
H      -0.737684    4.142280    0.439314
H      -0.843161    1.558061    2.192221
