22

C       0.088124    1.536879   -0.288441
C       0.118826    0.045304    0.017362
O       1.135512   -0.518006    0.388738
N      -1.062985   -0.611986   -0.152466
C      -1.214924   -2.049169    0.048918
C      -0.494341   -2.839784   -1.046081
C      -0.901266   -2.577910    1.482568
C      -2.230425   -3.378912    1.446203
C      -2.691399   -2.495335    0.254750
H       0.568717    2.071619    0.533822
H       0.678553    1.725419   -1.190169
H      -0.918422    1.936567   -0.438371
H      -1.860149   -0.102741   -0.497387
H       0.572362   -2.605992   -1.029248
H      -0.617300   -3.916928   -0.893761
H      -0.898237   -2.588076   -2.032866
H       0.031589   -3.130024    1.603379
H      -0.927108   -1.768335    2.214570
H      -2.085394   -4.422573    1.156174
H      -2.851511   -3.357003    2.343632
H      -3.316833   -1.662282    0.591359
H      -3.180648   -2.985081   -0.591556
