23

C      -0.072619    1.563639   -0.029027
C      -0.030382    0.031929   -0.001962
C       0.659072   -0.545962    1.236597
C      -0.031064   -0.244943    2.592032
C       0.456617   -1.347918    3.533298
C      -0.259919   -2.668965    3.476131
C       1.007255   -2.478433    2.681340
C       0.853438   -2.090463    1.213360
O      -0.256711   -2.792369    0.653093
H       0.936765    1.988129    0.011992
H      -0.550964    1.930520   -0.942531
H      -0.634168    1.962660    0.821620
H      -1.052763   -0.362199   -0.055588
H       0.490101   -0.323664   -0.903659
H       1.673770   -0.125975    1.295263
H       0.231574    0.748215    2.966460
H      -1.122948   -0.265217    2.485366
H       0.948058   -1.064717    4.457394
H      -0.201592   -3.316154    4.344961
H      -1.193092   -2.731615    2.928356
H       1.891419   -3.031417    2.975632
H       1.764304   -2.347755    0.653376
H      -0.314818   -2.554252   -0.277522
