23

C      -0.134761    1.538738    0.028825
C      -0.042700    0.025115    0.005050
C      -1.255473   -0.672997   -0.582209
C       1.306106   -0.608965   -0.235071
O       2.388624    0.244432   -0.477710
C       0.686141   -0.664346    1.140828
C       1.315973   -0.041804    2.393897
C       1.212024   -1.434956    3.083641
C       0.316309   -1.939603    1.913091
H       0.790584    1.992148    0.386948
H      -0.326944    1.929970   -0.976931
H      -0.957500    1.867151    0.674848
H      -1.429647   -0.350988   -1.615600
H      -1.137100   -1.760740   -0.586101
H      -2.159468   -0.441374   -0.006196
H       1.322134   -1.535635   -0.813760
H       3.168158   -0.135668   -0.058753
H       2.319847    0.377378    2.276532
H       0.685778    0.719691    2.864109
H       2.173291   -1.953092    3.129265
H       0.765551   -1.452649    4.080189
H      -0.744422   -1.989033    2.180503
H       0.597747   -2.893167    1.455778
