17

C      -0.097859    1.551176   -0.016975
C       0.046995    0.032165    0.001225
C       0.738245   -0.510692   -1.250385
C       1.024895   -1.975737   -1.095314
N       0.854323   -2.815124   -2.019704
O       1.530119   -2.364493    0.132412
C       1.527041   -1.558889    1.259567
O       2.092998   -1.937539    2.248325
N       0.857748   -0.378741    1.141537
H       0.880500    2.033605   -0.106693
H      -0.719881    1.861882   -0.860821
H      -0.577072    1.909893    0.900108
H      -0.956389   -0.416109    0.070635
H       0.130212   -0.371131   -2.144215
H       1.686856    0.024155   -1.388839
H       1.128189   -3.749691   -1.708838
H       0.788995    0.133216    2.007249
