14

N      -0.052767    1.190436   -0.647323
C      -0.007734    0.069224   -0.049552
N       1.120084   -0.409904    0.640234
N       1.511403   -1.690581    0.909743
C       0.680624   -2.579231    1.334450
N      -0.642648   -2.472903    1.714985
C      -1.460866   -1.633179    1.209059
C      -1.257512   -0.760838    0.023065
N      -2.130543   -0.645740   -0.897033
H       0.837619    1.690983   -0.602866
H       1.939748    0.158278    0.471584
H       1.126557   -3.548027    1.537037
H      -2.469305   -1.603921    1.631101
H      -2.956455   -1.212351   -0.677865
