19

C       0.025571    1.437250   -0.156121
O       1.281407    1.536908    0.540795
C       1.403127    0.100415    0.617943
C      -0.017244   -0.096982    0.041073
C      -1.045112   -0.583941    1.010802
C      -1.349201   -0.127102    2.467200
C      -2.126599   -1.427120    2.165737
C      -2.561794   -0.854737    0.798826
O      -0.911979   -1.978808    1.521589
H      -0.768328    2.011848    0.336381
H       0.105545    1.762344   -1.201289
H       2.210984   -0.276736   -0.021331
H       1.561824   -0.251748    1.642524
H      -0.068696   -0.688657   -0.875685
H      -0.524452   -0.234202    3.172178
H      -1.918375    0.794876    2.610645
H      -2.670969   -2.079773    2.847163
H      -3.243957   -0.000500    0.787667
H      -2.793402   -1.599700    0.036283
