18

C       0.015325    1.399085    0.027435
O       0.011246   -0.011550    0.055156
C      -1.213848   -0.606003    0.049133
C      -1.386864   -1.967137    0.065316
N      -2.759082   -2.211836    0.069262
C      -3.377834   -3.518673    0.028315
C      -3.412104   -1.020823    0.042102
O      -4.772482   -1.036839    0.023775
C      -2.502733    0.016263    0.032456
H       1.062529    1.708301    0.031283
H      -0.470587    1.789372   -0.877656
H      -0.487130    1.824597    0.907321
H      -0.673224   -2.771914    0.082213
H      -2.889045   -4.184379    0.745520
H      -4.430246   -3.423442    0.296246
H      -3.308834   -3.967735   -0.969667
H      -5.082715   -0.129922    0.096877
H      -2.735447    1.068238    0.020913
