21

C       0.100572    0.694632    0.580442
O      -0.046094   -0.520958   -0.117743
C       0.710766   -0.603712   -1.313698
C       2.189075   -0.933481   -1.067560
O       2.266499   -2.344102   -0.914846
C       1.108752   -2.979744   -1.494779
C       0.428766   -3.782111   -0.385659
O       1.343809   -4.665813    0.230816
C       0.246732   -1.848197   -2.080482
H       1.126876    0.854863    0.942124
H      -0.180955    1.555229   -0.046559
H      -0.567658    0.651959    1.443539
H       0.590739    0.322052   -1.895390
H       2.797625   -0.603114   -1.924347
H       2.589152   -0.460989   -0.165052
H       1.462790   -3.671750   -2.269032
H      -0.014092   -3.080410    0.336753
H      -0.376635   -4.394379   -0.807485
H       2.112090   -4.124186    0.449853
H      -0.824702   -2.010976   -1.944912
H       0.444477   -1.720392   -3.148014
