20

C      -0.096323    1.596122    0.026322
C       0.041320    0.087835    0.059167
O      -1.148718   -0.548993   -0.361823
C       1.293747   -0.674137   -0.324546
C       2.674781   -0.030796   -0.135857
C       2.907127    0.007856    1.380362
C       2.117329    0.909711    2.259840
N       1.707464   -0.491251    2.084045
C       0.713986   -0.825312    1.074203
H       0.857005    2.125248    0.050711
H      -0.588005    1.874522   -0.914180
H      -0.725102    1.963106    0.843402
H      -1.259238   -0.368650   -1.302757
H       1.187629   -1.460077   -1.065461
H       3.434933   -0.660520   -0.606661
H       2.758586    0.958462   -0.599480
H       3.861487   -0.365698    1.744508
H       2.491389    1.136429    3.255554
H       1.523496    1.700957    1.825855
H       0.116212   -1.691650    1.332164
