18

C       0.403177    1.027713    0.470810
O      -0.331958    0.175016   -0.384386
C       0.455464   -0.430342   -1.360037
C       1.238877   -1.674799   -1.010935
C      -0.004277   -1.760980   -1.873439
C      -1.274359   -2.389966   -1.316923
C      -1.267150   -3.847233   -1.400412
C      -1.248624   -5.046331   -1.482253
H       1.190145    0.481199    1.009603
H       0.873741    1.850800   -0.087833
H      -0.302595    1.447334    1.191339
H       0.897031    0.269822   -2.071639
H       2.210465   -1.836921   -1.464234
H       1.146801   -2.035563    0.008494
H       0.154399   -1.944705   -2.931712
H      -1.405593   -2.071863   -0.277619
H      -2.143991   -1.998363   -1.860753
H      -1.239554   -6.105908   -1.546648
