14

C      -0.042919    1.574750   -0.048181
C       1.506650    1.337677    0.012653
C       1.167569    0.169650    1.003549
C      -0.044779    0.007484    0.021214
C       0.700053   -0.325712   -1.280922
C       1.713807    0.543806   -1.286658
H      -0.445790    2.050451    0.852013
H      -0.446212    2.039323   -0.951065
H       2.211478    2.130776    0.260989
H       1.877673   -0.658159    1.068030
H       0.876148    0.515924    2.000601
H      -0.934579   -0.566624    0.278340
H       0.431511   -1.091442   -1.994576
H       2.506857    0.688569   -2.006294
