16

C       0.004241    1.380225   -0.078195
N      -0.067020   -0.074368   -0.107920
C       0.568535   -0.702621   -0.975644
O       1.387729   -0.241715   -2.024490
C       1.488314   -1.578517   -2.542388
C       2.169467   -2.463833   -1.538754
C       0.704533   -2.144948   -1.344011
C       1.317095   -1.852524   -3.975615
O       1.149336   -1.014789   -4.823704
H       0.575117    1.816078   -0.905339
H      -1.013514    1.783015   -0.095695
H       0.456661    1.693362    0.868910
H       2.371789   -3.481471   -1.859316
H       2.922718   -2.014486   -0.900129
H      -0.072270   -2.895206   -1.314403
H       1.359174   -2.940447   -4.210680
