19

N      -0.018460   -1.170489    0.228483
C      -0.013340   -0.025341    0.078286
C      -0.013309    1.430942   -0.082897
N       1.330558    1.975681    0.077723
C       1.364772    3.445348    0.044918
C       2.746054    3.972600    0.502862
C       3.057149    5.189052   -0.403639
C       2.141081    4.969843   -1.583228
C       1.232803    4.026227   -1.348544
H      -0.378803    1.660561   -1.090729
H      -0.756691    1.851238    0.620739
H       1.706846    1.657216    0.965698
H       0.561420    3.861948    0.686461
H       2.773719    4.212671    1.568749
H       3.478556    3.180638    0.315632
H       2.825611    6.139592    0.096438
H       4.113998    5.242331   -0.686961
H       2.214138    5.552032   -2.495472
H       0.451445    3.727712   -2.038426
