18

C      -1.380192    1.443311   -0.227523
C      -0.467229    0.237569   -0.168260
C      -1.006680   -0.963395    0.592619
N      -1.044912   -0.709150    2.022720
C      -2.184107   -0.720635    2.761999
O      -3.296107   -0.960286    2.338761
C       0.510619    0.007372   -1.260076
N       0.977334    0.445836    0.071830
H      -0.904390    2.271339   -0.762985
H      -2.317301    1.202725   -0.740385
H      -1.635681    1.788566    0.779746
H      -2.028038   -1.202094    0.287297
H      -0.372606   -1.834073    0.391919
H      -0.172905   -0.467618    2.467745
H      -1.982195   -0.483563    3.825925
H       0.799382   -1.003376   -1.536033
H       0.535356    0.721411   -2.079037
H       1.191222    1.440059    0.045131
