19

O      -0.011867    1.422141   -0.247204
C       0.011388    0.021695   -0.023905
C      -1.416042   -0.493774   -0.185100
C      -1.496367   -2.010214   -0.055653
C      -1.386573   -2.718493    1.354449
C      -2.864062   -2.264560    1.617726
C      -2.891275   -2.724455    0.118472
C      -2.047283   -3.902490    0.631251
O      -1.957236   -5.086041    0.528889
H       0.883396    1.758936   -0.149085
H       0.675197   -0.487495   -0.741915
H       0.381594   -0.216847    0.986297
H      -2.051922    0.029506    0.533369
H      -1.771748   -0.205322   -1.181599
H      -0.863854   -2.470276   -0.822889
H      -0.548999   -2.711854    2.048828
H      -3.445072   -2.854656    2.328680
H      -3.006476   -1.198598    1.784992
H      -3.733157   -2.718481   -0.570737
