15

C      -0.343173    1.442472   -0.068787
C       0.222411    0.027488    0.088041
C       0.841002   -0.501519   -1.195617
C       0.667027   -1.917078   -1.582989
O      -0.108083   -0.899494   -2.207163
C       1.998731    0.212950   -1.686382
C       2.965324    0.822804   -2.059001
H       0.442157    2.150184   -0.350011
H      -1.113201    1.463826   -0.845454
H      -0.791801    1.786101    0.867584
H       0.984256    0.007060    0.876383
H      -0.572449   -0.664578    0.385677
H       1.413635   -2.393725   -2.215461
H       0.123550   -2.581414   -0.911631
H       3.817526    1.356375   -2.400876
