16

O      -0.695920    0.968356    0.557245
C       0.270284    0.888492   -0.162304
C       1.443884    1.802690   -0.087401
C       1.828324    2.519668    1.222381
C       2.639283    3.604596    0.496896
O       1.587002    4.282615   -0.258295
C       1.570681    3.126891   -1.063085
C       3.044310    2.786595   -0.829961
N       2.732586    1.364727   -0.687089
H       0.338249    0.129726   -0.972907
H       0.982282    2.946176    1.762009
H       2.409117    1.869699    1.883260
H       3.295152    4.280608    1.041192
H       1.017707    3.175561   -1.997799
H       3.885571    3.113884   -1.438853
H       3.331776    0.846933   -0.044186
