17

C      -0.112528    1.617195   -0.067039
C      -0.257600    0.132564   -0.309261
C      -0.045297   -0.831683    0.828695
C      -1.433657   -0.596638    0.292791
N       1.281007    2.054520   -0.033249
C       2.100278    2.469739   -1.014830
N       3.294256    2.701955   -0.513970
N       3.191678    2.415050    0.810734
N       1.997139    2.025640    1.111239
H      -0.618503    2.199602   -0.843185
H      -0.545463    1.894150    0.897285
H       0.066818   -0.193083   -1.293593
H       0.440344   -1.775149    0.608771
H       0.209656   -0.414870    1.796646
H      -2.125750   -0.026750    0.904232
H      -1.903582   -1.375432   -0.296593
H       1.800572    2.593281   -2.042785
