17

O      -0.088009    1.421753   -0.008196
C      -0.096484    0.032969    0.037787
C      -0.458978   -0.758224    1.250837
C      -1.573783   -0.063908    2.018180
O      -1.146538    1.174019    2.582820
C      -2.471763   -0.026795    0.738816
C      -1.375176   -0.786596   -0.026436
C      -1.590252   -1.838039   -0.956258
C      -1.779903   -2.725688   -1.747919
H      -0.300978    1.741061    0.880640
H       0.707677   -0.398664   -0.552498
H       0.174406   -1.541324    1.649588
H      -2.006251   -0.706083    2.793233
H      -1.909712    1.615036    2.971204
H      -3.396330   -0.593872    0.852553
H      -2.690009    0.968906    0.343499
H      -1.944892   -3.505052   -2.449456
