18

O       0.136017    1.391607   -0.037610
C       0.091053   -0.004105    0.036889
C       0.665240   -0.637643    1.317161
N       0.016216   -1.967043    1.408102
C      -1.332979   -1.766404    0.904545
C      -2.270732   -2.919839    0.657012
C      -2.535720   -2.006413    1.811372
C      -1.343726   -0.538295    0.060727
O      -2.284234    0.029633   -0.446408
H      -0.716713    1.664225   -0.408788
H       0.591494   -0.470575   -0.834199
H       1.751223   -0.741716    1.311124
H       0.380261   -0.026547    2.181349
H       0.508744   -2.612499    0.796186
H      -2.910319   -2.847870   -0.215979
H      -1.878359   -3.908800    0.868220
H      -2.297984   -2.359768    2.807423
H      -3.353544   -1.299658    1.727789
