13

N      -0.070096    1.343802    0.069217
C      -0.027101    0.074101    0.004825
N       1.054389   -0.811095   -0.083417
C       0.716473   -2.242485   -0.005474
C      -0.772791   -2.134996   -0.004633
C      -1.179703   -0.842849   -0.002404
O      -2.486400   -0.766237   -0.003822
N      -2.921777   -2.203021   -0.008616
N      -1.890157   -2.914928   -0.011436
H       0.864690    1.754845    0.066470
H       1.982608   -0.493942    0.142430
H       1.113477   -2.795159   -0.865858
H       1.112008   -2.708095    0.907080
