18

C       0.489925    1.553187   -0.153810
C      -0.010743    0.121718    0.064378
C       0.305576   -0.824986   -1.116266
C       1.655709   -1.449578   -0.744641
C       1.678759   -1.438759    0.783376
O       2.406208   -2.063751    1.503825
N       0.671706   -0.533867    1.195679
C       0.315020   -0.251993    2.509976
O       0.821155   -0.701666    3.501767
H       1.558717    1.566690   -0.390607
H      -0.052012    2.020752   -0.981759
H       0.336782    2.165145    0.740153
H      -1.086399    0.145478    0.266517
H      -0.461017   -1.602687   -1.180668
H       0.318407   -0.289780   -2.067796
H       1.802993   -2.466446   -1.111185
H       2.503543   -0.851912   -1.098871
H      -0.536689    0.459529    2.536213
