18

C       0.136553    1.530632    0.059007
C      -0.012443    0.021109    0.027674
C       0.109536   -0.654683   -1.417643
C      -1.320284   -1.310869   -1.288972
O      -1.324196   -2.677799   -0.679559
C      -0.864400   -2.015223    0.447288
N       0.237272   -2.157245    1.051831
C       0.723482   -0.746112    1.176656
C      -1.405607   -0.643553    0.087428
H       1.181756    1.823205   -0.095697
H      -0.460051    2.012613   -0.722518
H      -0.181589    1.940124    1.024268
H       0.106932    0.106951   -2.201586
H       0.936550   -1.345093   -1.589074
H      -2.033499   -1.260313   -2.109073
H       1.810659   -0.762568    1.045674
H       0.514533   -0.294198    2.157172
H      -2.304081   -0.250405    0.559173
