17

C       0.007221    1.507096    0.072703
C       0.139654    0.020901   -0.023438
N      -0.806687   -0.916633    0.611698
C       0.661111   -1.001493    0.947924
C       1.266671   -1.777971   -0.164225
N       2.075794   -2.751174   -0.136411
O       2.482467   -3.114159   -1.430421
C       0.694537   -0.799655   -1.222592
O      -0.231703   -1.251626   -2.161550
H       0.941452    2.003121   -0.209647
H      -0.780092    1.870354   -0.597400
H      -0.246484    1.818770    1.091851
H      -1.256731   -0.424972    1.384489
H       1.002681   -0.890159    1.968413
H       3.087209   -3.843179   -1.255437
H       1.498395   -0.289738   -1.761786
H      -0.962862   -1.621172   -1.647259
