23

C      -0.160865    1.496191    0.089429
C      -0.012168   -0.027486   -0.017872
C       0.685329   -0.427357   -1.325496
C       0.729102   -0.585654    1.197207
C       0.081621   -0.468069    2.609378
C       0.599114   -1.898718    2.924847
O      -0.241319   -2.808288    3.582590
C       0.811708   -2.124639    1.394395
O      -0.328957   -2.759198    0.823358
H       0.819638    1.988159    0.086756
H      -0.732878    1.894952   -0.754954
H      -0.676649    1.787925    1.009929
H      -1.014655   -0.472542   -0.022893
H       1.710278   -0.037593   -1.361447
H       0.729158   -1.514991   -1.430235
H       0.150882   -0.027323   -2.193781
H       1.748572   -0.180158    1.216703
H       0.405674    0.344083    3.263603
H      -1.011796   -0.455359    2.548579
H       1.544770   -1.883947    3.473759
H      -1.015572   -2.904408    3.013272
H       1.732688   -2.625800    1.073555
H      -0.230902   -3.706157    0.966937
