17

C      -0.262141    1.576629    0.451581
C      -0.154269    0.090167    0.040857
C       0.820256   -0.614478    0.868441
C       1.634099   -1.170218    1.556873
C      -1.536872   -0.561358    0.058172
C      -1.822804   -1.868963    0.690420
O      -2.216842   -0.657636    1.317573
C      -2.460690   -0.179577   -1.061529
O      -2.113139    0.368733   -2.075957
H       0.721854    2.049001    0.417789
H      -0.927315    2.108682   -0.232789
H      -0.653510    1.658205    1.468396
H       0.175483    0.050717   -1.005123
H       2.359849   -1.659688    2.158282
H      -2.636659   -2.488596    0.314838
H      -0.990108   -2.391836    1.153633
H      -3.519560   -0.455675   -0.862843
