19

C      -0.078970    1.527876    0.034280
C      -0.051114    0.013590    0.057589
C      -1.270087   -0.660832   -0.538020
N       1.285549   -0.575721   -0.210881
C       0.702928   -0.692456    1.119775
C       1.351843   -0.194893    2.407352
O       0.913788   -1.386048    3.103109
C       0.347886   -1.954291    1.904549
H       0.847797    1.940742    0.439185
H      -0.189465    1.895479   -0.992036
H      -0.919533    1.913538    0.622023
H      -1.377588   -0.398699   -1.596912
H      -1.207101   -1.751207   -0.465189
H      -2.185616   -0.343512   -0.026315
H       1.195015   -1.456969   -0.714193
H       2.445299   -0.114819    2.366464
H       0.933355    0.716823    2.851420
H      -0.719878   -2.183239    2.018144
H       0.877454   -2.865100    1.589546
