20

C       0.357464    1.542023   -0.091001
C      -0.077693    0.096727    0.168277
N       0.679380   -0.605159    1.183530
C       2.115290   -0.800644    1.394337
C       2.652963    0.006435    2.548492
C       2.231390    1.402642    2.946039
C       1.823170   -1.249754    2.816786
C       0.348997   -0.979401    2.476122
O      -0.706400   -1.036138    3.050262
H       1.416160    1.594161   -0.365051
H      -0.222338    1.960802   -0.919566
H       0.200642    2.172795    0.787403
H      -1.119020    0.061819    0.504334
H      -0.027105   -0.471477   -0.770255
H       2.721908   -1.302762    0.650678
H       3.713608   -0.188971    2.711027
H       1.153258    1.545990    2.850755
H       2.495843    1.590456    3.991627
H       2.734453    2.156149    2.330836
H       2.203245   -2.110940    3.347286
