25

C      -0.402090    2.235039   -0.015392
C       0.359184    0.941102   -0.277987
C       1.785861    1.062318   -0.882582
C       2.320808    0.018093    0.136276
C       3.352933    0.543252    1.147719
C       2.519674    1.357339    2.155813
C       1.224286    0.533655    2.296809
C       0.093106    1.204168    3.079155
C       0.927245    0.021641    0.866425
H       0.183901    2.944247    0.577414
H      -0.637094    2.726262   -0.967327
H      -1.348350    2.059187    0.506510
H      -0.261814    0.312261   -0.925775
H       1.882072    0.797454   -1.938907
H       2.228008    2.055773   -0.745173
H       2.620938   -0.927285   -0.320532
H       3.834891   -0.295554    1.664788
H       4.147019    1.127271    0.670195
H       3.030751    1.504656    3.112622
H       2.295765    2.355506    1.757709
H       1.501211   -0.372479    2.857544
H      -0.176664    2.180051    2.669460
H      -0.809488    0.583149    3.084117
H       0.390063    1.357928    4.122606
H       0.402245   -0.936234    0.917065
