17

C       0.049806    1.366557    0.073229
N       0.102876   -0.084696    0.002515
C       0.528856   -0.666381   -1.020718
O       0.986926   -0.030517   -2.173494
C       1.623823   -0.929752   -3.012906
O       2.051463   -0.593861   -4.072095
C       1.667528   -2.286949   -2.333699
C       0.633533   -2.178872   -1.206870
N       0.947049   -2.960276   -0.023737
H       0.503672    1.874692   -0.783928
H      -0.997476    1.677914    0.154626
H       0.549395    1.692392    0.991403
H       1.489410   -3.085898   -3.053033
H       2.675715   -2.429160   -1.925499
H      -0.338892   -2.523142   -1.582858
H       1.808889   -2.609913    0.389234
H       0.229319   -2.784206    0.674967
