17

C      -0.031783    1.211759   -0.604450
N       0.063984   -0.145621   -0.137236
C      -0.981875   -1.040919    0.385222
C       0.171178   -1.978157    0.866226
O       0.237811   -2.307419    2.225977
C       0.342490   -3.231512    0.014318
O      -0.141953   -3.386359   -1.075293
C       1.101117   -0.826748    0.447058
N       2.327896   -0.669293    0.723094
H       0.953765    1.544087   -0.942241
H      -0.719578    1.273699   -1.453908
H      -0.381662    1.900333    0.178196
H      -1.549322   -0.623170    1.223913
H      -1.642061   -1.455649   -0.379890
H       1.065430   -1.937923    2.561118
H       0.969416   -4.003827    0.509171
H       2.688330    0.242372    0.440290
