11

O      -0.135437    0.009799   -0.000654
C       0.018808    1.205799    0.007086
C       1.306338    1.901583   -0.001797
N       2.524331    1.381584   -0.019068
C       3.377506    2.440143   -0.020510
C       2.678992    3.632217   -0.003956
N       1.364067    3.275282    0.008179
H      -0.852978    1.904447    0.021928
H       4.448643    2.305014   -0.033366
H       2.995402    4.662283    0.000230
H       0.576606    3.903636    0.021860
