16

N      -0.016042    1.331833    0.016596
C      -0.044303   -0.024763   -0.001510
N      -1.104519   -0.746053    0.052065
C      -0.681425   -2.157181    0.058172
C       0.800822   -2.176334   -0.422910
C       1.281190   -0.773061   -0.024392
O       2.169870   -0.134860   -0.926607
C      -0.819116   -2.739301    1.405453
N      -0.906299   -3.199905    2.462049
H       0.805006    1.756508   -0.386139
H      -0.891653    1.808950   -0.132396
H      -1.328708   -2.736455   -0.608982
H       1.387489   -2.991319    0.003863
H       0.823918   -2.250603   -1.513707
H       1.700544   -0.769123    0.993040
H       3.063861   -0.438702   -0.744934
