15

O      -0.091295    1.470740    0.060297
C       0.030386    0.060964    0.041428
C      -1.384916   -0.510755   -0.104016
C      -1.411063   -2.003128   -0.121760
C      -1.472935   -2.933996   -1.134970
N      -1.434149   -4.187278   -0.602232
N      -1.350893   -4.095709    0.692724
N      -1.333432   -2.780381    0.989802
H       0.790591    1.852260    0.097947
H       0.651449   -0.287149   -0.797635
H       0.491431   -0.318618    0.967808
H      -2.001659   -0.118978    0.713148
H      -1.817906   -0.130668   -1.033539
H      -1.547733   -2.771925   -2.198395
H      -1.286727   -2.496328    1.955756
