21

C      -0.031408    1.545132    0.018362
C      -0.091650    0.019508   -0.042870
O       0.841684   -0.570159    0.864331
C      -1.512148   -0.518835    0.186312
C      -1.577659   -2.024341    0.048784
C      -2.851599   -2.851568    0.026324
C      -3.919266   -2.153110   -0.809203
O      -2.995815   -1.970561   -1.916549
C      -1.993357   -2.716268   -1.214535
H       0.995419    1.891215   -0.127420
H      -0.665331    1.997536   -0.750926
H      -0.380498    1.909635    0.993233
H       0.249944   -0.313343   -1.030605
H       0.622819   -0.254328    1.748515
H      -1.848033   -0.211122    1.188021
H      -2.189592   -0.052240   -0.536301
H      -0.770289   -2.544592    0.559028
H      -3.018340   -3.697853    0.679272
H      -4.739330   -2.816520   -1.105947
H      -4.328019   -1.203888   -0.442526
H      -1.401507   -3.421765   -1.786777
