17

C      -0.325316    1.556321   -0.006707
C       0.054310    0.088393    0.080201
O       0.232888   -0.474406    1.134605
C       0.145753   -0.609759   -1.253353
C       1.432659   -0.869198   -1.975689
C       2.766847   -0.880215   -1.226667
N       2.650186   -1.966400   -0.240205
C       1.486006   -2.455696   -0.357589
N       0.638364   -1.991363   -1.424783
H       0.369809    2.098325   -0.657126
H      -1.323186    1.663085   -0.447363
H      -0.321509    1.994253    0.991749
H      -0.708441   -0.386807   -1.892417
H       1.434141   -0.763968   -3.056310
H       3.593753   -1.085341   -1.915655
H       3.005958    0.057409   -0.711322
H       1.109523   -3.261158    0.262535
