17

C       0.042566    1.339772   -0.053489
O       0.084509   -0.082200   -0.018203
C       0.729115   -0.606875    1.074622
C       0.597796   -2.132727    1.093362
C       1.942554   -2.583864    1.658706
O       2.373422   -3.837327    1.205093
C       2.874251   -1.464572    1.198473
O       4.058947   -1.562524    1.037592
O       2.165455   -0.337861    0.986736
H       1.046608    1.762927   -0.163079
H      -0.565190    1.613036   -0.917366
H      -0.421518    1.742899    0.857610
H       0.393462   -0.122722    2.003981
H      -0.268539   -2.464646    1.666050
H       0.501564   -2.483497    0.062361
H       1.920205   -2.547440    2.762625
H       3.334650   -3.771575    1.112860
