17

C       0.064536    1.542281   -0.069475
C      -0.006548    0.051999   -0.029969
C       0.849093   -0.997338   -0.759443
C       0.776699   -0.974800    0.747767
N      -0.389608   -1.959475    0.776042
C      -0.352297   -1.970236   -0.734562
C      -1.194364   -0.966597   -0.027754
C      -2.669215   -0.809740    0.118915
H       1.107310    1.877120   -0.035918
H      -0.381787    1.945734   -0.985999
H      -0.454229    1.994856    0.783783
H       1.677928   -0.847487   -1.437106
H       1.533764   -0.890337    1.518357
H      -0.611811   -2.851097   -1.311205
H      -3.142209   -1.794846    0.183287
H      -2.920902   -0.255861    1.030339
H      -3.101191   -0.276699   -0.735528
