17

O       0.073476    1.274660   -0.009049
C       0.083778   -0.073523    0.060294
N       0.133998   -0.822266   -1.040466
N       0.157330   -2.080228   -0.542843
C       0.078871   -3.354301   -1.226257
C       0.385476   -4.333006   -0.063308
C       0.031962   -3.563576    1.248098
C       0.097411   -2.134700    0.804026
C       0.054642   -0.829049    1.256909
H       0.104246    1.506114   -0.945770
H      -0.921505   -3.506732   -1.651780
H       0.806272   -3.411727   -2.040287
H      -0.166617   -5.269487   -0.160856
H       1.451643   -4.574610   -0.066832
H      -0.975145   -3.816781    1.601661
H       0.723608   -3.799900    2.061187
H       0.019080   -0.461033    2.267749
