17

C      -0.331798   -1.114953    0.483350
C      -0.121495    0.037315    0.212468
C       0.091661    1.416104   -0.138448
O       0.741994    2.257707    0.829826
C       1.439147    1.977036   -0.384585
C       2.704236    1.160286   -0.271175
C       3.840988    1.989903    0.280518
C       5.225917    1.812168   -0.167810
O       4.445475    2.916418   -0.629281
H      -0.516581   -2.131436    0.730139
H      -0.750092    1.893716   -0.639469
H       1.497352    2.826945   -1.066270
H       2.522222    0.297704    0.377903
H       2.980750    0.786413   -1.263883
H       3.672530    2.397192    1.278027
H       6.049541    2.065744    0.497922
H       5.452876    1.054450   -0.917301
