16

C       0.030866   -0.070180    1.229654
C       0.034008    0.579219    0.218006
C       0.071447    1.356104   -1.028064
N       1.286281    2.129155   -1.256009
C       1.549825    3.201144   -0.395931
C       0.738120    3.773511    0.540929
O       1.356036    4.862438    1.097210
C       2.571468    4.966602    0.515101
C       2.754551    3.987316   -0.406596
H       0.024739   -0.636888    2.127762
H      -0.060183    0.679283   -1.879620
H      -0.776918    2.051266   -1.055470
H       2.094794    1.535579   -1.388974
H      -0.237481    3.538008    0.926765
H       3.187793    5.783592    0.852921
H       3.621684    3.836605   -1.030820
