21

C      -0.110801    1.558191    0.065854
C       0.043278    0.038992    0.015747
C      -1.292703   -0.641416    0.324809
C       0.679371   -0.553458   -1.261561
C       2.112184   -0.142887   -1.431695
C       1.779940   -1.238562   -0.453821
C       1.216351   -0.639478    0.841696
C       2.175105    0.164404    1.684607
O       1.907229    1.172246    2.289496
H       0.815960    2.081808   -0.179035
H      -0.875001    1.873375   -0.654458
H      -0.415294    1.890658    1.061375
H      -2.062209   -0.323561   -0.388082
H      -1.209723   -1.731850    0.262430
H      -1.640715   -0.381816    1.330468
H       0.104453   -0.962725   -2.084582
H       2.581878   -0.475208   -2.351856
H       2.464713    0.825792   -1.086257
H       2.174647   -2.241454   -0.559485
H       0.810616   -1.416629    1.502537
H       3.203204   -0.270118    1.727514
