13

C      -0.190782    1.578644   -0.132842
C       0.051493    0.075250    0.079003
O      -1.153346   -0.630843    0.339039
C       0.786483   -0.498875   -1.052701
C       1.339576   -0.969393   -2.019037
C       2.038402   -1.520506   -3.151529
O       1.514096   -2.162128   -4.032660
H       0.755146    2.118874   -0.229406
H      -0.777106    1.748835   -1.041162
H      -0.743622    1.972124    0.723547
H       0.652254   -0.059301    0.986692
H      -1.669081   -0.646783   -0.475417
H       3.126575   -1.306839   -3.158734
