15

C       0.005829    1.500561    0.023519
C      -0.053741    0.005804   -0.004154
N      -1.136621   -0.638674   -0.250593
C      -1.070822   -2.030340   -0.249448
O      -2.028082   -2.739246   -0.468291
C       0.269613   -2.622459    0.041739
C       0.409311   -4.110865    0.058123
N       1.321688   -1.924267    0.281877
O       1.154619   -0.528797    0.258708
H       0.725975    1.862148   -0.716670
H      -0.983431    1.901124   -0.191943
H       0.344629    1.845611    1.004990
H       0.104826   -4.519832   -0.909994
H       1.437078   -4.399316    0.281149
H      -0.271009   -4.536291    0.802077
