19

C      -0.100683    1.597111   -0.018777
C      -0.044124    0.077402   -0.012528
C       1.173524   -0.630033   -0.629551
N       2.074022   -0.256149    0.579524
C       2.503568   -1.712688    0.690789
C       1.043862   -1.897708    0.280154
C       0.249158   -3.157294    0.049263
C       0.677314   -0.641242    1.139396
H       0.868740    2.019968    0.255885
H      -0.373353    1.974550   -1.010483
H      -0.850655    1.963785    0.690717
H      -1.006434   -0.370392   -0.285302
H       1.574200   -0.580056   -1.645431
H       3.283169   -1.993904   -0.026721
H       2.797215   -2.004872    1.705717
H       0.217240   -3.772025    0.955714
H      -0.783316   -2.933060   -0.239672
H       0.696141   -3.761896   -0.747750
H       0.491033   -0.604533    2.215967
