23

C      -0.386366    1.303210   -0.429950
C       1.026066    1.414286    0.090273
C       0.333007    0.072171    0.065272
C      -0.086508   -0.591152    1.338152
C      -0.744346   -1.955833    1.314414
C       0.639382   -1.798628    1.873542
C       1.965830   -2.366146    1.343271
C       2.540772   -2.249475    2.786400
C       1.103251   -1.987782    3.325456
H      -1.186155    1.700664    0.186468
H      -0.553893    1.411358   -1.495975
H       1.825256    1.599599   -0.619132
H       1.173594    1.887191    1.055939
H       0.667576   -0.616842   -0.705923
H      -0.458244    0.100221    2.093464
H      -1.560486   -2.152565    2.003370
H      -0.850516   -2.444101    0.349250
H       1.880815   -3.402930    1.001872
H       2.474984   -1.787183    0.568048
H       3.057970   -3.127274    3.179618
H       3.194409   -1.381740    2.903851
H       0.976497   -1.135534    3.999787
H       0.662487   -2.871215    3.799595
