14

N      -0.124664   -1.139327    0.136702
C      -0.081133    0.014416    0.094010
C      -0.065829    1.469255    0.042168
C       0.589387    2.191838    1.153875
O       1.234534    2.044920   -0.110730
C      -1.170652    2.087654   -0.770153
C      -1.000919    3.453356   -1.318819
N      -0.984144    2.283552   -2.214729
H       0.237855    3.194294    1.387414
H       1.035220    1.629493    1.971004
H      -2.162166    1.736382   -0.494705
H      -1.868746    4.097962   -1.419302
H      -0.061008    3.960349   -1.124408
H      -0.019419    2.071596   -2.463358
