20

C       0.011498    1.471132    0.208404
C      -0.021144    0.023441   -0.306540
C      -1.399754   -0.583486   -0.229201
C      -1.630525   -1.993715    0.105416
O      -1.858688   -0.967108    1.072409
C       1.389250    2.093389    0.139649
C       1.877992    2.732349   -1.137486
C       1.556300    3.588746    0.064208
H      -0.690366    2.081633   -0.376399
H      -0.356147    1.484612    1.242089
H       0.325682   -0.006428   -1.347968
H       0.671343   -0.593331    0.279023
H      -2.163950   -0.079431   -0.825849
H      -2.522764   -2.502263   -0.258023
H      -0.778429   -2.642684    0.305502
H       2.144627    1.565238    0.717571
H       2.917586    2.607446   -1.419561
H       1.192929    2.768382   -1.978961
H       0.657669    4.195981    0.025700
H       2.376676    4.046955    0.605459
