19

C       0.891499    1.212478    0.008399
N       1.687438    0.000865   -0.243788
C       0.227578   -0.111212   -0.111610
C      -0.282475   -0.848623    1.106955
C      -1.663936   -0.428261    1.579252
C      -2.453164   -1.489906    1.738550
C      -1.730845   -2.728788    1.331172
C      -1.334705   -2.775947   -0.105930
N      -0.371787   -2.322474    0.906704
H       1.043299    1.656449    0.988983
H       0.747687    1.931880   -0.793472
H       1.956045   -0.046227   -1.222672
H      -0.345805   -0.276613   -1.021765
H       0.460258   -0.679212    1.899438
H      -1.938604    0.606789    1.746402
H      -3.476384   -1.485133    2.093896
H      -1.827195   -3.641195    1.913810
H      -1.067473   -3.719594   -0.574457
H      -1.810232   -2.052863   -0.764243
