14

C      -0.158164    1.540595    0.103563
C       0.110198    0.040523   -0.007815
N       0.741155   -0.500259    1.186174
C       0.250924   -1.352756    2.108660
N       1.142633   -1.577716    3.057236
C       2.192216   -0.812592    2.653595
N       2.002004   -0.140380    1.528637
H       0.775877    2.078160    0.280847
H      -0.604620    1.909715   -0.824295
H      -0.844053    1.755510    0.928092
H      -0.819015   -0.517336   -0.155504
H       0.765573   -0.170914   -0.857996
H      -0.739968   -1.777421    2.044262
H       3.122228   -0.750553    3.198898
