19

C       0.082684    1.540860    0.231694
C      -0.008169    0.038468   -0.091556
C      -1.403448   -0.486546   -0.137355
C      -2.127787   -0.992808   -1.159241
N      -3.393054   -1.333653   -0.679730
C      -4.484249   -1.914264   -1.425178
C      -3.486795   -1.043512    0.677098
O      -4.439676   -1.214552    1.416854
N      -2.239316   -0.516408    0.982563
H       1.126247    1.868551    0.257035
H      -0.446923    2.132711   -0.520501
H      -0.361272    1.769642    1.205978
H       0.457232   -0.157846   -1.062949
H       0.577660   -0.524829    0.648399
H      -1.852546   -1.142524   -2.189701
H      -4.205597   -2.885464   -1.849125
H      -5.310186   -2.052666   -0.725152
H      -4.808569   -1.254593   -2.237765
H      -2.005771   -0.223430    1.914594
