17

C      -0.062060    1.399102    0.136284
C       0.124886   -0.090159   -0.045654
C       0.827459   -0.575835   -1.290899
C       1.540792   -0.663030    0.057447
C       1.415778   -2.159781   -0.112410
N       1.168297   -3.292897    0.495527
C       0.381310   -3.967809   -0.430856
C       0.084595   -3.194488   -1.534325
N       0.842438   -2.052976   -1.354025
H       0.778846    1.962093   -0.282697
H      -0.976502    1.742158   -0.358523
H      -0.137319    1.653690    1.198096
H      -0.683749   -0.710216    0.333268
H       1.053738    0.028709   -2.159296
H       2.383574   -0.085919    0.411342
H       0.092733   -4.995445   -0.261461
H      -0.469144   -3.413360   -2.432190
