16

C       0.012213    1.508574   -0.131401
C       0.068766    0.009932    0.034396
N       1.380648   -0.635895    0.017114
C       0.596794   -0.687808    1.262381
C       1.181343    0.066685    2.455513
C       2.284777   -0.659301    3.085161
N       3.156567   -1.232047    3.580496
C      -0.054674   -1.935813    1.600436
N      -0.577856   -2.933609    1.861966
H       0.888863    1.999694    0.295159
H      -0.013947    1.755616   -1.197418
H      -0.890445    1.919509    0.331376
H      -0.748018   -0.524420   -0.448226
H       1.367261   -1.531390   -0.463684
H       1.552258    1.037451    2.120305
H       0.401256    0.247961    3.202738
