22

C       0.043052    1.459851    0.307045
C       0.379304   -0.029657    0.186735
C       0.661731   -0.511303   -1.254095
C       1.947065    0.098100   -1.828126
C       0.625261   -2.051617   -1.295654
C       1.574625   -2.855002   -2.127350
N       1.713754   -2.846871   -0.666700
C      -0.696861   -2.600324   -1.084883
C      -1.812542   -3.025500   -0.941710
H       0.878067    2.102835    0.011548
H      -0.816660    1.721572   -0.320155
H      -0.212224    1.714857    1.340214
H       1.245047   -0.265571    0.820320
H      -0.456670   -0.614580    0.584620
H      -0.174031   -0.176272   -1.882552
H       2.841718   -0.255212   -1.300926
H       2.066205   -0.128202   -2.890910
H       1.929008    1.186079   -1.729190
H       1.232562   -3.796846   -2.545343
H       2.307576   -2.328027   -2.729219
H       2.468458   -2.217998   -0.399014
H      -2.790318   -3.416407   -0.805399
