21

C       3.034736   -1.755040    0.521359
C       1.772410   -0.987567    0.185208
C       0.443984   -1.655113    0.051183
C       0.682546   -0.696801    1.221287
C       0.760154   -1.292617    2.623490
O      -0.512237   -1.584936    3.162005
C      -0.022999    0.624398    1.187728
C      -0.002337    1.476305   -0.070715
O      -0.606064    1.030560    2.179385
H       2.835929   -2.636409    1.135305
H       3.513354   -2.102339   -0.400544
H       3.756046   -1.127073    1.054770
H       1.949807   -0.172068   -0.510150
H      -0.230232   -1.354708   -0.742860
H       0.361052   -2.700835    0.329125
H       1.309612   -2.236979    2.602193
H       1.319438   -0.601787    3.273286
H      -0.955544   -0.728154    3.222449
H      -0.773172    2.242619    0.015531
H       0.971594    1.971249   -0.160867
H      -0.156352    0.895462   -0.983728
