19

O       0.229054    1.364922    0.028717
C       0.050448   -0.047913   -0.023902
C      -1.392391   -0.516824   -0.265063
C      -1.168854   -1.991677   -0.722051
C      -0.525001   -1.300122   -1.947365
O      -0.340638   -1.992853   -3.134757
C      -1.601223   -0.181032   -1.771270
C       0.724260   -0.663583   -1.308831
O       1.315490    0.302882   -2.144460
H      -0.564660    1.783153   -0.321553
H       0.476980   -0.448813    0.899326
H      -2.130253   -0.260454    0.494613
H      -0.539154   -2.638767   -0.103445
H      -2.104824   -2.494948   -0.970640
H       0.268244   -1.470351   -3.671883
H      -2.579277   -0.496652   -2.137671
H      -1.363343    0.820542   -2.141491
H       1.465576   -1.434519   -1.060341
H       1.269927    1.134953   -1.648255
