25

C      -0.388946    1.409071    0.210557
C      -0.134221   -0.088027    0.359586
C       0.858502   -0.675124   -0.687759
C       1.982813   -0.635908    0.388949
C       0.885740   -0.460570    1.475603
C       2.952491   -1.824090    0.511017
C       3.827190   -1.935711   -0.745504
C       3.817665   -1.672803    1.765010
O       2.231046   -3.048718    0.706217
H       0.550189    1.970741    0.143422
H      -0.968749    1.624576   -0.693934
H      -0.947029    1.800804    1.068186
H      -1.091789   -0.613930    0.422385
H       0.586837   -1.697630   -0.971353
H       1.015138   -0.096912   -1.602996
H       2.575768    0.278726    0.280601
H       1.059776    0.286906    2.254844
H       0.651417   -1.419502    1.944216
H       4.440792   -1.039778   -0.884507
H       4.491043   -2.801913   -0.669039
H       3.210078   -2.055533   -1.643917
H       3.190433   -1.636145    2.659772
H       4.496477   -2.524897    1.861046
H       4.411980   -0.755346    1.719717
H       1.803927   -3.276114   -0.125920
