15

C      -0.129261    1.294919    0.159112
O       0.008249   -0.110419   -0.079845
C       0.695390   -0.423389   -1.207592
O       1.166982    0.369847   -1.971526
N       0.739439   -1.812144   -1.294303
C       1.349212   -2.576894   -2.297675
C       1.194383   -4.071032   -2.058809
O       1.928924   -2.105061   -3.240086
H       0.850903    1.766165    0.265588
H      -0.663723    1.775999   -0.663689
H      -0.697014    1.381635    1.085530
H       0.276643   -2.298851   -0.542063
H       0.136811   -4.354015   -2.025458
H       1.685633   -4.604465   -2.871285
H       1.648350   -4.363189   -1.105788
