15

C      -0.080850   -1.262718   -0.035377
C      -0.031741   -0.063199   -0.018190
C       0.012767    1.400007    0.047572
C      -0.588900    1.932604    1.408041
N       0.374241    2.982513    1.747467
C       1.508888    2.727240    1.005162
N       1.431357    1.891056    0.042094
C      -0.696750    1.983187   -1.100478
C      -1.284981    2.479937   -2.021925
H      -0.115990   -2.323579   -0.069422
H      -1.597660    2.326334    1.278016
H      -0.601876    1.130860    2.154520
H       0.478541    3.250015    2.715045
H       2.420367    3.273704    1.231710
H      -1.795316    2.910408   -2.847821
