20

C      -0.039162    1.499335   -0.028531
C       0.001417   -0.023389   -0.031375
C      -1.259329   -0.690201   -0.516493
C      -1.712129   -1.601545    0.348471
C      -0.839268   -1.743316    1.580223
C       0.301555   -0.741471    1.316653
N       1.641951   -1.254703    0.825216
C       1.419196   -2.072954   -0.383701
C       1.351203   -0.609839   -0.522396
H       0.875537    1.914689    0.407861
H      -0.130311    1.892532   -1.047943
H      -0.892948    1.868110    0.549240
H      -1.729605   -0.444162   -1.463433
H      -2.609722   -2.195607    0.207180
H      -1.391587   -1.508014    2.498775
H      -0.458857   -2.765642    1.707311
H       0.492122   -0.077955    2.161943
H       2.331373   -2.562978   -0.711494
H       0.521145   -2.674453   -0.487064
H       2.108521   -0.031277   -1.044565
