16

C       0.075692    1.546530    0.037982
C      -0.000973    0.056970    0.002065
C       0.841462   -0.964109   -0.784105
C       0.784188   -1.006792    0.723963
N      -0.377789   -2.003153    0.711049
C      -0.351161   -1.946124   -0.769031
C      -1.194159   -0.941182   -0.029476
C      -2.658627   -0.864026    0.067877
O      -3.381565   -1.832308    0.060317
H       1.120376    1.874651    0.060445
H      -0.393917    1.995802   -0.844452
H      -0.418974    1.952833    0.927615
H       1.661601   -0.793786   -1.466533
H       1.542116   -0.964043    1.495565
H      -0.682404   -2.767050   -1.393476
H      -3.069800    0.168824    0.127876
