16

C      -0.464711    1.533912    0.012268
C       0.181022    0.168429   -0.077155
O       1.293645    0.206738   -0.980292
C       2.221867   -0.692813   -0.585093
N       3.204132   -1.016603   -1.296463
O       1.918055   -1.176156    0.661330
C       0.831902   -0.406040    1.208492
C       1.323533    0.586138    2.158838
C       1.721587    1.395380    2.952252
H       0.249359    2.276051    0.374270
H      -0.825789    1.836723   -0.973544
H      -1.317377    1.503024    0.697167
H      -0.536995   -0.572611   -0.452955
H       3.803612   -1.665315   -0.791989
H       0.158410   -1.104341    1.712948
H       2.080297    2.108211    3.653983
