17

O       0.212599   -0.073034   -0.499754
C       0.016042    1.097815   -0.213341
C      -1.270320    1.755495   -0.220266
C      -1.384050    3.081166    0.057632
N      -0.356781    3.921038    0.334214
C       1.033615    3.516403    0.300352
C       1.719984    3.413709    1.688939
N       1.406973    1.968883    1.702891
C       1.195698    1.969874    0.232323
H      -2.153205    1.173351   -0.449150
H      -2.359263    3.560643    0.066973
H      -0.559419    4.895679    0.475574
H       1.575193    4.093354   -0.454997
H       2.790520    3.658500    1.626448
H       1.268683    3.987165    2.506343
H       2.136095    1.349916    2.038149
H       2.079513    1.682568   -0.351229
