19

C      -0.044153    1.581100    0.116721
C       0.005794    0.041978    0.047903
C       0.717652   -0.539646    1.286558
C      -1.368441   -0.479794   -0.003030
N      -2.444967   -0.896748   -0.072701
C       0.718836   -0.461213   -1.280741
N       0.045471   -0.135851   -2.533696
C       2.101009    0.017449   -1.326015
C       3.229328    0.429570   -1.360068
H       0.973664    1.978252    0.137155
H      -0.567879    2.001701   -0.745621
H      -0.567511    1.907805    1.018632
H       0.205391   -0.239126    2.204118
H       0.740253   -1.632643    1.251690
H       1.745946   -0.172169    1.321792
H       0.740043   -1.557000   -1.208256
H      -0.922544   -0.442523   -2.500619
H       0.055067    0.864425   -2.701799
H       4.232515    0.775881   -1.404020
