14

C      -0.233449    1.401558    0.161475
C       0.337892    0.106224   -0.349165
O       1.436083   -0.058368   -0.808048
O      -0.588260   -0.887601   -0.216340
C      -0.297376   -2.159247   -0.613051
C       0.823116   -2.732640   -1.171896
N       0.441349   -4.026200   -1.315165
N      -0.809903   -4.238411   -0.882161
N      -1.263677   -3.093707   -0.451345
H       0.508702    2.190999    0.053162
H      -1.138858    1.656194   -0.396503
H      -0.519598    1.294954    1.211599
H       1.783115   -2.348413   -1.454510
H       0.970218   -4.797230   -1.691090
