18

C      -0.067891   -1.137603   -0.297565
C      -0.062567    0.063701   -0.258460
C      -0.018383    1.519746   -0.205699
C       1.381766    2.035077    0.163859
C       2.445757    1.860849   -0.956981
C       2.262592    3.350023   -1.352329
C       1.560850    3.591153    0.021978
C       0.382578    4.439899    0.060805
N      -0.568403    5.098431    0.076791
H      -0.091275   -2.198615   -0.332302
H      -0.327532    1.932028   -1.175049
H      -0.749211    1.890873    0.523242
H       1.658165    1.643416    1.144779
H       3.440368    1.657746   -0.553034
H       2.220499    1.110942   -1.717351
H       3.158171    3.943309   -1.542127
H       1.571271    3.483774   -2.186467
H       2.277789    3.953980    0.763725
