19

C      -0.065586    1.535410    0.117696
C      -0.030938    0.023114    0.093090
C       1.253904   -0.718110   -0.246459
C       0.694179   -0.739894    1.157486
O       1.337117    0.005641    2.170195
C       1.784495   -0.879472    3.196630
C       0.912808   -2.112205    3.077608
O      -0.483126   -1.806874    3.018788
C       0.227800   -2.011932    1.787153
H       0.859823    1.941172    0.532740
H      -0.198302    1.938148   -0.892078
H      -0.892045    1.897272    0.737916
H      -0.946215   -0.445254   -0.261383
H       1.205669   -1.615206   -0.856121
H       2.144632   -0.115398   -0.390299
H       2.840340   -1.161086    3.056838
H       1.681405   -0.358129    4.153430
H       1.191618   -3.048332    3.553380
H      -0.076691   -2.862049    1.184091
