19

C      -0.690725    1.540180   -0.269063
C       0.053462    0.213065   -0.080284
C      -0.895928   -0.906799    0.384470
C       0.792831   -0.201185   -1.317438
C       0.807259    0.347756   -2.552224
O       1.645779   -0.415932   -3.352995
C       2.084044   -1.385333   -2.524377
N       2.897165   -2.344663   -3.074745
N       1.631180   -1.324518   -1.311379
H      -0.008736    2.345394   -0.559819
H      -1.461092    1.451049   -1.043582
H      -1.188293    1.836790    0.659040
H       0.806795    0.348557    0.708602
H      -1.696314   -1.063142   -0.347310
H      -0.353419   -1.848045    0.499556
H      -1.357055   -0.648795    1.343535
H       0.350189    1.197237   -3.025656
H       3.473542   -2.022580   -3.838319
H       3.405210   -2.871827   -2.380329
