16

C      -0.169315    1.484674   -0.198717
C       0.060876   -0.007732   -0.069768
O       0.824549   -0.542225   -1.143661
C       2.118648   -0.866374   -0.644680
C       1.839739   -1.184524    0.820696
O       0.769277   -0.296773    1.132681
C      -1.240888   -0.826842   -0.030977
O      -2.345863   -0.366768   -0.120177
H       0.791881    2.000706   -0.254643
H      -0.749824    1.695109   -1.099029
H      -0.725361    1.854159    0.665614
H       2.509052   -1.710705   -1.217335
H       2.802658   -0.012765   -0.747193
H       1.538461   -2.231948    0.956203
H       2.675224   -0.964141    1.490054
H      -1.054895   -1.915438    0.103944
