17

C       0.015122    1.485604   -0.056293
C       0.006034   -0.012412   -0.009848
N       0.641453   -0.880154   -1.070067
C       0.047894   -1.851716   -0.082888
C       0.604767   -0.985619    1.071336
N      -0.309569   -1.121797    2.190735
C      -1.579394   -1.015256    1.626955
O      -2.638949   -0.923024    2.196050
C      -1.239614   -0.988500    0.140209
H       1.039189    1.854638   -0.169930
H      -0.579202    1.860319   -0.896330
H      -0.406583    1.900551    0.865181
H       0.059183   -0.862089   -1.912234
H       0.112485   -2.933810   -0.202722
H       1.667612   -0.982957    1.300371
H      -0.122560   -0.742911    3.106193
H      -2.050221   -0.977819   -0.586299
