14

N       0.092847    1.285952    0.007026
C       0.021542    0.024830    0.004162
N      -1.204036   -0.668104    0.011689
C      -1.258710   -2.062949    0.008286
N      -0.237271   -2.810070   -0.001650
C      -2.739318   -2.388751    0.018874
O      -3.401523   -1.129356    0.027446
C      -2.500828   -0.101332    0.023229
O      -2.810536    1.044130    0.028863
H       1.072185    1.569644    0.000264
H       0.846613   -0.690485   -0.004125
H      -0.497283   -3.794859   -0.002319
H      -3.032942   -2.954160   -0.871649
H      -3.019120   -2.959026    0.910743
