14

C      -0.224927    1.767300    0.568260
N       0.011127    0.357929    0.349891
C      -0.926434   -0.421445   -0.004624
N      -0.734066   -1.775033   -0.221717
C       0.476013   -2.434191   -0.083295
N       0.539246   -3.682826   -0.308771
C      -2.307091   -0.007755   -0.227734
N      -3.395869    0.341093   -0.399369
H       0.431445    2.344418   -0.092732
H      -1.261606    2.088842    0.401733
H       0.059712    2.020575    1.595718
H      -1.521388   -2.341574   -0.502716
H       1.283346   -1.766986    0.221273
H       1.488899   -4.020348   -0.165643
