17

O       0.018804    1.042366   -0.830915
C       0.033200   -0.280625   -0.332069
C      -1.324018   -0.626610    0.260335
O      -2.367772   -0.453768   -0.745720
C      -2.639874   -1.875202   -0.802799
C      -2.199211   -2.507711   -2.036124
C      -1.774100   -3.060379   -3.017247
C      -1.689836   -2.125891    0.419776
O      -0.701064   -3.102343    0.322662
H      -0.749681    1.095847   -1.412894
H       0.296843   -1.001968   -1.120476
H       0.806925   -0.333229    0.440407
H      -1.530141    0.011045    1.126933
H      -3.701432   -2.078647   -0.624639
H      -1.434293   -3.535376   -3.905280
H      -2.249068   -2.324334    1.336202
H      -0.461896   -3.202878   -0.608220
