12

N      -0.044948   -1.147591   -0.296295
C       0.017899   -0.024769   -0.036165
C       0.073078    1.408901    0.282746
N       1.393108    1.978549    0.112785
C       1.950983    2.567037   -0.970487
N       3.194318    2.912463   -0.710779
C       3.357370    2.494412    0.576741
N       2.298807    1.921192    1.122111
H      -0.632180    1.945442   -0.358598
H      -0.227790    1.561276    1.322150
H       1.417663    2.718740   -1.897289
H       4.277566    2.622498    1.126438
