21

C      -0.226452    1.377422    0.049299
C      -0.011213   -0.138119   -0.019222
O       0.686449   -0.527284   -1.202705
C      -0.075054   -0.437596   -2.389936
C       0.654188   -1.057840   -3.489795
C       1.234007   -1.558147   -4.414714
C       0.803376   -0.642411    1.147026
C       0.115849   -1.018840    2.435712
C       0.720037   -2.086369    1.557720
H       0.736104    1.896114   -0.001604
H      -0.856323    1.741860   -0.767333
H      -0.714948    1.644427    0.991105
H      -0.994052   -0.642671   -0.005170
H      -1.048232   -0.943584   -2.262372
H      -0.297752    0.608966   -2.652596
H       1.751934   -2.003863   -5.227473
H       1.776783   -0.167277    1.234655
H       0.607272   -0.773978    3.370654
H      -0.966673   -0.947850    2.474850
H       0.046130   -2.729218    1.001308
H       1.627069   -2.578154    1.890195
