17

O      -0.546730    1.266365   -0.883443
C      -0.057451    0.140607   -0.175157
C      -1.160590   -0.869089    0.224924
C      -1.155253   -1.950388   -0.889607
O      -1.506607   -3.256946   -0.464316
C      -2.160599   -1.621826   -1.995935
O      -2.330912   -0.515106   -2.444965
C       0.254999   -1.827982   -1.449711
C       0.854732   -0.710734   -1.042393
H      -1.109191    0.924359   -1.596329
H       0.455599    0.553669    0.698820
H      -0.899244   -1.369705    1.163046
H      -2.126400   -0.377946    0.357658
H      -0.823748   -3.564725    0.140638
H      -2.726602   -2.499267   -2.369564
H       0.650972   -2.571032   -2.133240
H       1.841663   -0.377518   -1.343149
