16

C       0.205338    1.608330   -0.202213
C      -0.099952    0.130587    0.098109
C       0.561627   -0.371673    1.335970
C       0.100302   -0.922862    2.498166
N      -1.206478   -1.271467    2.874283
C       1.290664   -1.169329    3.240683
N       2.367227   -0.797158    2.593743
O       1.916496   -0.300283    1.384665
H       1.281323    1.763623   -0.313191
H      -0.284804    1.921763   -1.128498
H      -0.145322    2.254397    0.608218
H      -1.181278   -0.016784    0.200383
H       0.209271   -0.485333   -0.756409
H      -1.910782   -0.804419    2.317429
H      -1.390255   -1.085165    3.852315
H       1.387339   -1.605463    4.225643
