18

O      -0.206931    1.475647   -0.039038
C      -0.014842    0.082366   -0.000103
C       0.330455   -0.597135    1.355707
C      -0.694664   -1.709535    0.997667
C      -1.564188   -2.283877    2.119897
C      -2.614742   -3.234384    1.591718
O      -2.725304   -4.389698    1.914192
C      -1.324227   -0.728936   -0.036296
H       0.655354    1.903154   -0.048989
H       0.675510   -0.248067   -0.789522
H       1.364912   -0.890321    1.551216
H      -0.033944    0.024268    2.180057
H      -0.188925   -2.530031    0.477132
H      -0.957672   -2.814669    2.860477
H      -2.081461   -1.456292    2.626896
H      -3.307084   -2.784635    0.841944
H      -2.126702   -0.136674    0.415570
H      -1.664818   -1.120175   -0.997088
