21

C       0.277856    1.402410    0.092655
O      -0.257629    0.158184   -0.303777
C       0.547027   -0.524223   -1.223843
C       1.737619   -1.325766   -0.648508
O       1.134268   -2.580920   -1.025903
C      -0.021114   -1.907981   -1.628941
C      -1.319408   -2.344398   -0.977656
C       0.018668   -2.197069   -3.132215
O       0.053022   -3.589582   -3.366031
H       1.242451    1.291290    0.610292
H       0.423598    2.071953   -0.769264
H      -0.438202    1.858057    0.780015
H       0.801137    0.129418   -2.071753
H       2.709081   -1.171188   -1.132871
H       1.851641   -1.237887    0.438635
H      -1.268372   -2.226059    0.105387
H      -2.153648   -1.742529   -1.350968
H      -1.508151   -3.392482   -1.223952
H      -0.877365   -1.804120   -3.625435
H       0.894812   -1.696783   -3.577083
H       0.770366   -3.922764   -2.810746
