13

O      -0.015831   -0.104232   -0.061416
C       0.008550    1.106056    0.014410
C      -1.253686    1.921680    0.274502
O      -1.248881    3.250361   -0.267299
C      -0.126143    3.996615   -0.218484
O      -0.150886    5.160175   -0.501316
C       1.151183    3.281733    0.211399
N       1.129043    1.866986   -0.107574
H      -2.095087    1.405187   -0.185964
H      -1.431773    1.968840    1.357058
H       1.975654    3.770497   -0.309315
H       1.292390    3.467462    1.288025
H       2.000620    1.368308   -0.214103
