21

C      -0.051704    1.512556   -0.025770
C       0.085172    0.001624    0.041361
O       0.966069   -0.513777   -0.979049
C       1.924777   -1.285635   -0.211959
C       2.932540   -1.925782   -1.122235
C       2.274336   -0.325540    0.959350
C       0.783832   -0.586990    1.291752
O       0.293959   -0.249125    2.548561
C       1.021382   -2.052123    0.791329
H       0.910353    2.014166    0.105127
H      -0.461811    1.811246   -0.994912
H      -0.731302    1.861749    0.758567
H      -0.910588   -0.453733   -0.082601
H       3.468600   -1.162478   -1.694913
H       3.660054   -2.504004   -0.546017
H       2.436609   -2.596195   -1.830941
H       2.940352   -0.775131    1.697702
H       2.593845    0.686718    0.707056
H      -0.627577   -0.526536    2.602437
H       0.175774   -2.607707    0.376214
H       1.580744   -2.652977    1.510476
