19

O       0.042163    1.382994    0.296550
C      -0.038762   -0.029827    0.388932
C      -1.298337   -0.468511   -0.351603
C      -1.457727   -1.971076   -0.346441
N      -1.981616   -2.593314    0.883569
C      -2.759707   -2.692893   -0.353963
C      -4.109285   -1.988838   -0.369140
C      -5.174520   -2.853138    0.140489
N      -6.004967   -3.553916    0.533246
H       0.797620    1.677050    0.813554
H       0.845927   -0.511086   -0.061483
H      -0.101027   -0.366648    1.434586
H      -2.156629    0.016345    0.121789
H      -1.245928   -0.104054   -1.384730
H      -0.649488   -2.500258   -0.852671
H      -1.511871   -3.469281    1.091810
H      -2.770764   -3.652646   -0.867010
H      -4.069323   -1.085860    0.245259
H      -4.367946   -1.683891   -1.390115
