18

C      -0.189402    0.930189    0.876658
O      -0.243750    0.177848   -0.317141
C      -1.371541   -0.682703   -0.432614
C      -1.485463   -1.076663   -1.899375
C      -1.235039   -1.894682    0.449762
N      -0.740944   -3.058369    0.165032
C      -0.821801   -3.778167    1.348466
C      -1.373614   -2.996102    2.304589
O      -1.647853   -1.781479    1.744116
H       0.672537    1.596015    0.789932
H      -1.097424    1.538307    1.012407
H      -0.062770    0.299788    1.766776
H      -2.274109   -0.139417   -0.109624
H      -0.607477   -1.651350   -2.200277
H      -2.373485   -1.691409   -2.065930
H      -1.551597   -0.174168   -2.510992
H      -0.482480   -4.799319    1.418791
H      -1.630536   -3.119495    3.342395
