18

O       0.071130    0.028886    0.620225
C      -0.031492    1.009013   -0.141736
O       0.640528    1.442895   -1.080199
C      -1.268917    1.936693    0.141472
C      -2.151073    2.374051   -1.051406
C      -3.357678    1.667381   -0.401796
C      -3.573806    0.170596   -0.737731
C      -2.765164   -0.205841    0.531607
N      -2.506091    1.264494    0.813603
H      -2.722930    1.579923    1.755227
H      -0.959676    2.753897    0.794684
H      -2.276270    3.451830   -1.167096
H      -1.816074    1.951295   -1.998747
H      -4.244187    2.260090   -0.178572
H      -4.615005   -0.153132   -0.726154
H      -3.113869   -0.136334   -1.677548
H      -3.364102   -0.628979    1.338734
H      -1.810765   -0.723215    0.426506
