16

C      -0.059424    1.375197    0.096014
O      -0.021478   -0.047745    0.040616
C      -1.218778   -0.659483    0.011202
N      -2.369871   -0.007981    0.031256
N      -3.312165   -1.011120   -0.012328
C      -2.748116   -2.231069   -0.057249
O      -3.476327   -3.357019   -0.104589
C      -1.377361   -2.070924   -0.044570
N      -0.473281   -3.166768   -0.083154
H       0.980896    1.703714    0.113782
H      -0.572263    1.788011   -0.778987
H      -0.580691    1.718695    0.995644
H      -4.288835   -0.779516   -0.007523
H      -2.826395   -4.076360   -0.129831
H       0.130702   -3.183191    0.733475
H       0.138813   -3.119231   -0.892489
