16

C       0.008588    1.435116    0.018232
N      -0.049628   -0.011198   -0.001868
C      -0.040183   -0.766402   -1.165397
C       0.022819   -2.076324   -0.748834
N       0.039812   -3.404528   -1.132976
C       0.086651   -4.138644    0.041703
N       0.092143   -3.424347    1.134004
C       0.053471   -2.113385    0.674568
C       0.011038   -0.804965    1.121019
H       1.038833    1.804619   -0.050702
H      -0.564497    1.839392   -0.820208
H      -0.433807    1.804519    0.946143
H      -0.075296   -0.291205   -2.130748
H       0.040568   -3.781686   -2.063519
H       0.116317   -5.219434    0.009577
H       0.017881   -0.368322    2.105592
