18

C      -0.092632    1.469496   -0.185878
C       1.287767    0.922551    0.078338
C       0.099760   -0.012947    0.027464
C      -0.375479   -0.706966    1.252795
C      -0.380048   -2.219149    1.413553
C      -1.652790   -1.450394    1.591590
O      -1.722530   -0.900044    2.909043
C      -0.541644   -0.095948    2.646530
H      -0.568462    2.046583    0.599437
H      -0.330160    1.810699   -1.187441
H       2.003370    0.894626   -0.735803
H       1.730206    1.121570    1.048983
H       0.028363   -0.624327   -0.868063
H      -0.287601   -2.765401    0.479041
H       0.079264   -2.697626    2.275185
H      -2.582488   -1.615331    1.058640
H       0.256895   -0.272775    3.377402
H      -0.804079    0.968328    2.638599
