20

C       0.165640    1.360738   -0.272549
C       1.384827    2.145727    0.214522
O       2.649941    1.599898   -0.124993
C       2.894767    1.440412   -1.505870
C       2.424188    0.122700   -2.111373
N       3.027652   -1.126577   -1.635209
C       1.584491   -0.909802   -1.431879
C       1.142431   -0.823099    0.014971
O       0.039255    0.050637    0.240740
H      -0.728458    1.896037    0.067695
H       0.137362    1.360026   -1.372568
H       1.298682    3.175346   -0.175872
H       1.379263    2.194480    1.307980
H       2.439148    2.267439   -2.074760
H       3.981115    1.512827   -1.633277
H       2.265331    0.206164   -3.187888
H       3.193050   -1.763517   -2.409307
H       0.897250   -1.447945   -2.084158
H       0.787718   -1.806532    0.341779
H       2.005246   -0.547927    0.626348
