18

O      -0.100607    1.494407   -0.021142
C      -0.019696    0.082821   -0.009097
C      -1.408801   -0.536234   -0.129768
C      -2.409546    0.166072   -0.965638
N      -1.655960   -0.960446   -1.532794
C      -0.466631   -0.562329   -2.315739
C       0.689132   -0.480281   -1.283362
C       1.844301    0.298318   -1.694873
C       2.777673    0.994539   -1.999780
H       0.780959    1.830762   -0.228502
H       0.488694   -0.266734    0.899705
H      -1.719790   -1.233891    0.641990
H      -3.468147   -0.025031   -0.812646
H      -2.160355    1.172199   -1.288930
H      -0.265418   -1.314991   -3.081757
H      -0.605158    0.402445   -2.815625
H       1.002411   -1.505713   -1.051224
H       3.613471    1.581987   -2.290827
