14

C       0.253881    1.644016   -0.091143
C       0.062000    0.103080    0.069569
C       0.950915   -0.350341    1.227160
O       0.608782   -0.261997    2.378548
C      -1.415773   -0.145726    0.369303
O      -2.250101   -0.206456   -0.497193
C       0.482807   -0.550206   -1.246462
O       1.633280   -0.789463   -1.510646
H       1.300344    1.865783   -0.316877
H      -0.373934    2.013282   -0.906450
H      -0.027772    2.151722    0.835201
H       1.939358   -0.748842    0.927637
H      -1.662997   -0.247677    1.443532
H      -0.347624   -0.769840   -1.944741
