15

N       0.051606    1.421819    0.092523
C      -0.009738    0.035032    0.019329
C      -1.170422   -0.673546   -0.019141
N      -2.419058   -0.008127   -0.063337
C      -1.141729   -2.130881   -0.127403
O      -2.173236   -2.773842   -0.262348
N       0.121606   -2.758737   -0.092091
C       1.172908   -2.027563    0.000655
N       1.182652   -0.661007    0.040779
H       0.807052    1.830254   -0.445968
H      -0.839215    1.817837   -0.192202
H      -2.666844    0.393283    0.837220
H      -3.116908   -0.718285   -0.279855
H       2.158697   -2.486679    0.055588
H       2.048142   -0.169482    0.201393
