14

C      -0.099942    1.372773    0.018996
O      -0.053700   -0.055907   -0.015516
C      -1.213271   -0.698187   -0.016773
N      -1.351555   -1.984910   -0.050941
C      -2.731413   -2.163668   -0.031828
N      -3.247282   -3.449059   -0.124767
C      -3.353697   -0.958585    0.017866
O      -2.347555    0.015308    0.025399
H       0.940198    1.697600    0.012705
H      -0.622218    1.769238   -0.856679
H      -0.598426    1.727274    0.925983
H      -2.587169   -4.138684    0.208302
H      -4.151870   -3.566685    0.308909
H      -4.366335   -0.602154    0.037196
