23

C       0.029033    1.380948    0.140289
O       0.001674   -0.024319    0.108118
C      -1.299314   -0.547131   -0.062108
C      -1.210455   -2.059107   -0.065061
C      -0.875829   -2.770084    1.279322
C      -2.019382   -3.791906    1.010744
C      -2.516054   -2.875597   -0.116788
C      -3.912611   -2.329151   -0.238940
C      -3.349485   -3.240685   -1.306369
H       1.069554    1.686906    0.275604
H      -0.350724    1.820325   -0.796494
H      -0.570602    1.784561    0.972161
H      -1.961405   -0.205284    0.752669
H      -1.737648   -0.180227   -1.008415
H      -0.517920   -2.366446   -0.856833
H       0.133548   -3.171700    1.382776
H      -1.082995   -2.127768    2.139921
H      -1.649793   -4.754206    0.641836
H      -2.714432   -3.981698    1.833566
H      -4.671321   -2.727581    0.427826
H      -4.049577   -1.281122   -0.485746
H      -3.094077   -2.800789   -2.265832
H      -3.731552   -4.254952   -1.370395
