19

C      -0.046030    1.464700    0.552328
O      -0.080336    0.058572    0.483640
C      -1.227671   -0.427611   -0.188047
C      -1.133327   -1.928300   -0.252840
C      -1.369739   -2.741102    1.022695
C      -2.389102   -2.779814   -0.058029
O      -3.596557   -2.094719    0.074303
C      -0.136621   -2.490019   -1.203563
O       0.110492   -3.668634   -1.311519
H       0.865326    1.743665    1.086490
H      -0.026279    1.923788   -0.448933
H      -0.915347    1.868821    1.095020
H      -2.149058   -0.124294    0.327049
H      -1.273199   -0.008885   -1.209058
H      -0.734018   -3.608737    1.158488
H      -1.590818   -2.158118    1.909796
H      -2.422782   -3.672853   -0.680242
H      -4.099896   -2.513820    0.780144
H       0.375135   -1.735521   -1.840087
