21

C       0.225064    1.535167    0.230777
C      -0.072931    0.047696    0.034737
O      -1.476823   -0.213797    0.109327
C       0.527018   -0.497097   -1.245188
C       1.911205   -1.144706   -1.249660
C       0.680640   -1.969159   -1.439026
C       0.107449   -3.121256   -0.619499
C      -0.195788   -3.735635   -2.003281
O       0.379630   -2.595486   -2.686499
H       1.303759    1.718143    0.264333
H      -0.187138    2.123237   -0.598474
H      -0.223497    1.894611    1.160772
H       0.344434   -0.511585    0.881303
H      -1.891047    0.197361   -0.657459
H       0.273955    0.061478   -2.145817
H       2.539819   -0.981388   -2.118438
H       2.447118   -1.219848   -0.307281
H       0.827611   -3.672416   -0.011778
H      -0.765518   -2.859015   -0.020916
H       0.339462   -4.661150   -2.243261
H      -1.257099   -3.858901   -2.246501
