17

N      -0.028897    1.207453   -0.583084
C      -0.000864    0.064661   -0.046160
C      -1.264747   -0.735054    0.211794
N      -1.085643   -2.045521    0.841221
C      -0.059335   -2.077077    1.971756
C       0.095857   -3.584173    1.669349
C       0.093442   -2.855842    0.306852
C       1.062294   -1.816253    0.931080
O       1.162935   -0.534621    0.340833
H       0.917756    1.583476   -0.672052
H      -1.931610   -0.136583    0.841070
H      -1.786293   -0.876393   -0.740509
H      -0.238752   -1.581817    2.926905
H       1.023873   -4.066342    1.980044
H      -0.792999   -4.181365    1.867125
H       0.093967   -3.277837   -0.698984
H       2.083767   -2.122158    1.167900
