18

C      -0.018315    1.589841    0.018368
C      -0.058198    0.067658   -0.003308
C       1.122103   -0.611867   -0.746342
O       1.955783   -0.312098    0.432997
C       0.707635   -0.628044    1.152744
C       0.589292   -2.144884    0.898089
C      -0.408941   -2.670223   -0.103178
C       0.913809   -2.132216   -0.588840
H       0.988085    1.949190    0.241014
H      -0.328519    1.998707   -0.949592
H      -0.704942    1.984000    0.775685
H      -1.069905   -0.274773   -0.227028
H       1.535753   -0.235226   -1.682309
H       0.692397   -0.268137    2.181936
H       1.073794   -2.822674    1.590225
H      -0.504914   -3.752124   -0.133343
H      -1.342741   -2.159312   -0.302622
H       1.645016   -2.800385   -1.027112
