20

C      -0.136087    1.513123    0.182011
C       0.021158    0.021169   -0.007583
C       0.652951   -0.601146   -1.226346
C       1.288316    0.260814   -2.312560
C       2.776356    0.445687   -2.038966
O       3.022420    0.931062   -0.709660
C       2.600046    0.136486    0.327994
N       3.201190    0.134810    1.443212
C       1.372738   -0.674927    0.110724
H       0.722606    2.072280   -0.196486
H      -1.032775    1.879637   -0.330590
H      -0.237714    1.751870    1.245399
H      -0.793294   -0.558366    0.418918
H       0.207705   -1.528631   -1.571010
H       1.167122   -0.216915   -3.290065
H       0.802882    1.240074   -2.378919
H       3.312412   -0.502993   -2.177634
H       3.224443    1.190163   -2.701558
H       4.019512    0.745882    1.392832
H       1.386848   -1.611923    0.652888
