15

O       0.370016    2.308612   -1.424522
C       0.100419    1.812836   -0.346714
N       0.968367    1.156310    0.458717
C       2.355143    0.913478    0.211679
C       2.913098    0.629115   -1.181289
C       3.258937    1.915113   -0.503872
C       2.971655    0.160303    1.325789
O       2.366194   -0.196168    2.309788
H      -0.913292    1.850874    0.096444
H       0.648373    0.775795    1.340289
H       3.664911   -0.148484   -1.265740
H       2.189840    0.678765   -1.983885
H       2.762266    2.805968   -0.863669
H       4.257898    2.055680   -0.104558
H       4.051580   -0.058033    1.189397
