15

N       0.015266    1.390470   -0.194599
C       0.002236   -0.013726   -0.101252
N      -1.116880   -0.668649   -0.304705
N      -1.128534   -2.007862   -0.276191
C       0.022502   -2.621047    0.005465
N      -0.021439   -3.985855    0.146060
H      -0.836680   -4.426512   -0.249996
H       0.854062   -4.465756    0.014448
N       1.224885   -2.034009    0.183780
C       1.221537   -0.717828    0.117378
N       2.388805   -0.022760    0.286448
H      -0.924899    1.723902   -0.382097
H       0.364573    1.830585    0.651548
H       3.228156   -0.581428    0.230563
H       2.429843    0.875003   -0.174445
