15

C      -0.523370    1.155738   -0.953237
N      -0.045724   -0.202979   -1.127197
C       0.970637   -0.710459   -0.390292
O       1.589829   -0.127408    0.472964
C       1.335140   -2.175416   -0.721779
O       2.201466   -2.787517   -0.176948
O       0.532851   -2.676737   -1.722415
C       0.732749   -3.975842   -2.134382
N      -0.008766   -4.414574   -3.047874
H       0.073510    1.619185   -0.167337
H      -0.411689    1.731764   -1.877813
H      -1.577892    1.165680   -0.658262
H      -0.474517   -0.800869   -1.815103
H       1.538825   -4.469412   -1.592075
H       0.235790   -5.380360   -3.262294
