17

C       0.077331    1.518409    0.009471
C      -0.049561   -0.003102    0.003176
C      -1.498610   -0.481609    0.012159
O      -2.433332    0.293355    0.023717
C      -1.735784   -1.937239    0.006666
C      -2.932935   -2.638426    0.012424
C      -2.560352   -3.991140    0.002628
N      -1.231737   -4.139770   -0.008485
N      -0.756802   -2.889997   -0.005768
H       1.129112    1.816694    0.002729
H      -0.413992    1.952347   -0.864533
H      -0.400337    1.943925    0.895104
H       0.446491   -0.432313   -0.879194
H       0.460016   -0.440654    0.873678
H      -3.918043   -2.203251    0.022292
H      -3.192726   -4.866293    0.003071
H       0.239859   -2.751169   -0.012673
