23

C      -0.000510    1.606370   -0.043542
C       0.020694    0.087648   -0.051068
C       1.218741   -0.636920   -0.734010
C       1.034140   -1.760794    0.317545
C       0.428549   -0.672806    1.252233
C      -0.038705   -2.742992   -0.178938
O      -0.135059   -3.910320    0.629045
C      -1.403092   -2.025606   -0.294232
C      -1.280645   -0.518313   -0.617243
H       0.949358    2.014832    0.318210
H      -0.173150    2.004620   -1.050852
H      -0.798888    1.990363    0.602597
H       1.118025   -0.903167   -1.792240
H       2.156777   -0.092774   -0.589111
H       1.916409   -2.309206    0.654731
H       1.212415   -0.133349    1.791568
H      -0.355457   -0.951929    1.964236
H       0.277146   -3.124164   -1.157538
H      -0.410656   -3.633431    1.510083
H      -2.048341   -2.538733   -1.012878
H      -1.898043   -2.135392    0.678593
H      -2.151084    0.008264   -0.207506
H      -1.300731   -0.347617   -1.701052
