18

C       0.065558    0.802992   -0.664653
O      -0.297086    0.609051    0.706751
C       0.478394   -0.280244    1.368959
C       0.870198   -1.575474    1.141449
N       0.592504   -2.374882    0.009142
N       1.651177   -2.015093    2.188413
C       1.724616   -1.020299    3.048435
C       2.459542   -1.037174    4.345998
N       1.018484    0.059945    2.596315
H       0.072792   -0.148456   -1.205330
H      -0.685246    1.473052   -1.087649
H       1.057381    1.265121   -0.741058
H      -0.371495   -2.694627    0.004057
H       1.183645   -3.198880    0.043988
H       3.240865   -0.268657    4.389668
H       1.790874   -0.875138    5.200040
H       2.932389   -2.013408    4.462076
H       0.893157    0.949944    3.048894
