10

F       0.030873    0.059564    0.003088
C      -0.007444    1.381088    0.010409
C      -1.237694    2.035754    0.030669
N      -1.282961    3.366394    0.038111
C      -0.126519    4.026081    0.025592
C       1.076306    3.322289    0.005441
F       2.221342    3.983113   -0.006905
N       1.149403    2.008332   -0.002291
H      -2.168805    1.480166    0.040614
H      -0.142162    5.110271    0.031369
