18

N      -0.093524    1.272795   -0.552254
C      -0.093514    0.114053   -0.054321
O      -1.072081   -0.756479   -0.373784
C      -0.931294   -2.091117    0.117140
C      -2.302643   -2.714331    0.118526
C      -2.844808   -3.409196   -1.082140
C      -2.507615   -4.230651    0.156714
C      -1.367147   -5.174665    0.098599
O      -1.301982   -6.199010    0.731676
H       0.694389    1.806387   -0.191074
H       0.640639   -0.292097    0.656259
H      -0.237452   -2.644552   -0.527424
H      -0.511593   -2.076363    1.132313
H      -3.016025   -2.161301    0.722171
H      -3.891764   -3.295283   -1.335743
H      -2.184173   -3.523624   -1.936485
H      -3.327059   -4.585177    0.772117
H      -0.552012   -4.885511   -0.604821
