20

C      -0.177518    1.386960   -0.494318
C      -0.059520   -0.022273   -0.146808
C       0.050387   -1.187613    0.134787
C       0.150855   -2.603145    0.480777
C      -1.212412   -3.280910    0.521478
N      -1.714802   -3.863965   -0.729715
C      -1.433510   -4.749050    0.420853
C      -0.357402   -5.780742    0.166962
O      -0.792912   -6.733797   -0.787442
H       0.799657    1.882521   -0.481454
H      -0.600087    1.516697   -1.496874
H      -0.826384    1.919995    0.209600
H       0.789511   -3.116363   -0.245276
H       0.634696   -2.712308    1.461057
H      -1.933460   -2.743131    1.135011
H      -2.712313   -3.701494   -0.829845
H      -2.295835   -5.139521    0.959542
H       0.574305   -5.295464   -0.155953
H      -0.140508   -6.337248    1.084963
H      -1.060670   -6.221952   -1.560385
