19

O      -0.549818    1.307832    1.171341
C      -0.147058    1.303357    0.037226
C       1.288842    1.558639   -0.373544
C       1.384027    2.717524   -1.350754
C       1.358164    4.160477   -0.851501
C       2.608212    3.576343   -1.421972
C       3.989270    3.387972   -0.802112
C       4.492231    3.865797   -2.181889
O       3.138552    4.009269   -2.674213
H      -0.839860    1.116120   -0.816762
H       1.874683    1.744527    0.531698
H       1.673134    0.643282   -0.847290
H       0.899114    2.555527   -2.310606
H       0.828918    4.890951   -1.453843
H       1.311482    4.331155    0.220324
H       4.220138    4.047537    0.036191
H       4.250678    2.361197   -0.538004
H       5.027563    4.821518   -2.187935
H       5.058585    3.130366   -2.763892
