20

C      -0.174922    1.569377    0.031034
C      -0.044836    0.073990   -0.112760
C       0.579392   -0.753244   -1.189639
C       1.642703   -0.402737   -2.211963
C       2.417114    0.873831   -2.403557
O       1.944487    2.136551   -2.040724
C       2.932815   -0.145979   -1.424161
C       2.488891   -0.066512    0.044077
N       1.165254   -0.731085    0.174446
H       0.600919    2.128359   -0.481190
H      -1.140951    1.883517   -0.379888
H      -0.175158    1.831737    1.096317
H      -0.907526   -0.425414    0.334408
H       0.056872   -1.671597   -1.455856
H       1.645143   -1.062003   -3.073700
H       2.950564    0.887656   -3.356375
H       2.708643    2.677850   -1.813043
H       3.862676   -0.660225   -1.646343
H       3.199911   -0.609612    0.672737
H       2.457305    0.967358    0.410228
