19

C      -0.667319    1.191537   -0.075442
C       0.108382   -0.115560   -0.067241
C       1.469255   -0.184877   -0.778393
O       1.905859    0.375082   -1.741982
C       2.074538   -1.064394    0.313746
C       0.877806   -0.657448    1.226745
C       1.206658    0.418779    2.259366
C       0.137601   -1.816467    1.852123
O       0.246385   -2.967031    1.509370
H      -0.074548    2.020655    0.319978
H      -0.938981    1.445266   -1.104402
H      -1.589596    1.118096    0.509022
H      -0.513543   -0.931140   -0.459411
H       2.020837   -2.128743    0.061312
H       3.084241   -0.817032    0.648978
H       1.707625    1.273792    1.796103
H       0.303633    0.789194    2.756210
H       1.876808    0.022985    3.029819
H      -0.570914   -1.529688    2.663606
