17

O       0.010255    1.428849    0.168000
C      -0.086505    0.039543    0.080042
C      -0.435562   -0.812778    1.259635
C      -1.457618   -0.066154    2.125166
C      -2.427812   -0.058404    0.907791
O      -2.861923    1.232229    0.439704
C      -4.173522    1.538422    0.484211
O      -4.604306    2.592575    0.128376
C      -1.382393   -0.715782    0.026402
H      -0.832855    1.813602   -0.095923
H       0.680345   -0.389505   -0.562631
H       0.163602   -1.655209    1.579774
H      -1.848417   -0.638257    2.967832
H      -1.134056    0.920744    2.461960
H      -3.304601   -0.691901    1.072417
H      -4.790330    0.707323    0.878401
H      -1.601241   -1.435063   -0.753869
