19

C       0.046619    1.562984    0.086084
C       0.003997    0.035175    0.053288
O       0.697633   -0.518208    1.161111
C      -1.442452   -0.528129   -0.026385
C      -2.211421   -0.058041   -1.281086
C      -1.431216   -1.986627    0.030334
C      -1.458102   -3.194594    0.043650
C      -1.435839   -4.632774    0.063027
O      -2.381648   -5.333315    0.346071
H       1.079211    1.890675    0.230481
H      -0.327772    2.009126   -0.838890
H      -0.555272    1.953337    0.916961
H       0.552892   -0.327314   -0.823841
H       0.299193   -0.172240    1.967910
H      -1.982975   -0.162421    0.860720
H      -1.666387   -0.327228   -2.190937
H      -3.195286   -0.530366   -1.324898
H      -2.352270    1.025090   -1.266961
H      -0.454520   -5.072728   -0.209209
