16

C      -0.059066    1.582318    0.003121
C      -0.012739    0.085319    0.037298
C       0.115732   -0.762597   -1.033538
N       0.290897   -0.534481   -2.388395
O       0.134543   -2.054432   -0.648682
C       0.013322   -2.066352    0.735284
C      -0.084031   -0.776066    1.174830
C       0.018571   -3.307708    1.382173
C       0.019786   -4.372732    1.948864
H       0.408826    1.972623   -0.906798
H      -1.083755    1.973911    0.041927
H       0.480692    2.012934    0.852531
H      -0.233942    0.254894   -2.738131
H       0.121185   -1.360821   -2.946144
H      -0.186272   -0.475595    2.206481
H       0.021161   -5.308599    2.449509
