17

C      -0.175340   -1.127981   -0.318694
C      -0.073584    0.046582   -0.090595
C       0.076711    1.478262    0.165372
O      -0.628471    1.803187    1.373671
C      -1.221786    3.079322    1.370884
C      -0.312903    4.250045    1.130509
C       0.998011    4.266920    0.841375
C       1.890555    3.144393    0.572296
C       1.529227    1.895074    0.255344
H      -0.275928   -2.166673   -0.515822
H      -0.391435    2.030170   -0.667544
H      -2.066354    3.128858    0.658094
H      -1.666668    3.179618    2.370200
H      -0.816579    5.208248    1.252232
H       1.469781    5.245264    0.778400
H       2.952826    3.374594    0.602724
H       2.278037    1.134201    0.065234
