14

N       0.095660    1.445366    0.287698
C      -0.036968    0.033585   -0.021544
C      -1.480355   -0.442242   -0.227678
C      -1.364652   -1.552651   -1.255768
O      -2.150285   -2.388345   -1.571243
O      -0.120261   -1.462786   -1.868747
C       0.641860   -0.455538   -1.299172
N       1.720730   -0.020183   -1.771979
H       1.083537    1.664599    0.386671
H      -0.221425    1.996183   -0.507065
H       0.408623   -0.531402    0.807550
H      -1.984995   -0.796691    0.670776
H      -2.096871    0.356044   -0.658639
H       1.975330   -0.499555   -2.636684
