19

C      -0.515162    1.589048    0.458276
C      -0.024714    0.194814    0.194191
C      -0.859469   -1.033771    0.470102
C       0.438429   -0.792524    1.229220
C       1.700878   -1.420991    0.673020
C       1.642755   -1.038995   -0.836382
O       0.839900    0.144894   -0.921771
C       2.946403   -0.806377   -1.443738
C       4.031856   -0.649396   -1.933755
H       0.327169    2.270355    0.613861
H      -1.100919    1.960800   -0.388758
H      -1.151088    1.609269    1.347457
H      -1.782928   -0.890773    1.021117
H      -0.903928   -1.827247   -0.268705
H       0.395130   -0.565865    2.288439
H       2.581207   -0.972318    1.141922
H       1.764147   -2.505693    0.797238
H       1.143342   -1.847530   -1.390524
H       4.987622   -0.501333   -2.372316
