16

N      -0.094854    1.573150   -0.067594
C      -0.036545    0.126919   -0.004090
C       0.888838   -0.544576   -1.053488
C       2.263764   -0.065461   -0.939126
N       3.334099    0.352179   -0.811548
C       0.159295   -0.460086    1.414707
O      -0.999705   -1.306388    1.259406
C      -1.404343   -0.591616    0.076058
H       0.832034    1.969439    0.071732
H      -0.402229    1.880520   -0.987249
H       0.874692   -1.633217   -0.928888
H       0.521055   -0.328678   -2.064011
H       1.071581   -1.036099    1.603362
H       0.021364    0.290888    2.201322
H      -2.230511    0.103171    0.270175
H      -1.670715   -1.268066   -0.744812
