17

O      -0.098556    1.204142   -0.798426
C      -0.125773    0.113015    0.103854
C      -1.402812   -0.678924   -0.056578
O      -1.446983   -1.640507   -1.111910
C      -1.554300   -2.124439    0.244367
C      -0.441270   -3.043671    0.704725
O      -0.367832   -4.178095   -0.137535
C      -2.957314   -2.553635    0.587266
O      -3.234126   -3.279354    1.504610
H      -0.087248    0.842923   -1.691698
H       0.747804   -0.538670   -0.021787
H      -0.087944    0.545889    1.109071
H      -2.300845   -0.059305    0.002513
H       0.518041   -2.513713    0.756107
H      -0.689442   -3.409748    1.704316
H      -0.244886   -3.850401   -1.036056
H      -3.726045   -2.115128   -0.087351
