23

C      -0.011842    1.582914    0.020097
C      -0.097316    0.053081   -0.045889
C       0.714193   -0.540873   -1.199073
C       2.268966   -0.491523   -1.113105
C       2.544067   -1.444428    0.100285
C       1.459948   -2.549913   -0.075301
C       0.699870   -2.086963   -1.366042
C       1.692585   -2.238961   -2.506053
C       2.623973   -1.290930   -2.356101
H       1.014589    1.920070    0.199153
H      -0.349147    2.038667   -0.917467
H      -0.635549    1.980211    0.826963
H       0.213358   -0.366924    0.916748
H      -1.146803   -0.242877   -0.177440
H       0.386130   -0.069826   -2.132964
H       2.734551    0.491112   -1.026499
H       3.561816   -1.840309    0.073895
H       2.426038   -0.913459    1.049753
H       1.887999   -3.547062   -0.200574
H       0.784000   -2.590221    0.783827
H      -0.274717   -2.557923   -1.506309
H       1.681861   -3.045086   -3.229611
H       3.531970   -1.161398   -2.932570
