15

O       0.006905    0.893179   -0.862804
C      -0.150294    0.365047    0.445526
C      -1.373933   -0.420106    0.606615
C      -2.372135   -1.088488    0.677592
C      -3.572095   -1.900382    0.749618
C      -3.755576   -2.840962   -0.436162
O      -3.014031   -2.936822   -1.380809
C      -5.007722   -3.729400   -0.391362
O      -5.801000   -3.710226    0.511879
H      -0.110555    0.165269   -1.482662
H       0.715542   -0.250337    0.738493
H      -0.164399    1.229579    1.118570
H      -3.593406   -2.515579    1.660043
H      -4.481129   -1.286536    0.820825
H      -5.097942   -4.389039   -1.279306
