19

C      -0.403931    1.596710   -0.410313
C      -0.178607    0.116427   -0.061076
C      -1.453313   -0.638419    0.170233
N      -1.760639   -1.081667    1.383756
N      -2.967995   -1.689980    1.229061
C      -3.412852   -1.637180   -0.046924
O      -4.594389   -2.207941   -0.336656
C      -4.993863   -2.110777   -1.696977
C      -2.461114   -0.958864   -0.781175
H       0.549733    2.108540   -0.574041
H      -1.003263    1.704172   -1.320242
H      -0.932499    2.110101    0.398663
H       0.390181   -0.362149   -0.868487
H       0.427119    0.035652    0.846581
H      -3.423704   -2.125470    2.011993
H      -4.269111   -2.605565   -2.354507
H      -5.959164   -2.612652   -1.771056
H      -5.098690   -1.062371   -2.000824
H      -2.480381   -0.730675   -1.833243
