23

C       0.210886    1.554091   -0.344891
O      -0.325818    0.281230   -0.624133
C       0.615662   -0.618747   -1.138224
C       1.637107   -1.290853   -0.178042
C       1.378943   -2.629676   -0.922370
C       0.063296   -2.015366   -1.507518
C      -1.191315   -2.397428   -0.725521
O      -0.112748   -2.119185   -2.908128
C      -0.340010   -3.420477   -3.401979
H       0.997463    1.511587    0.423729
H       0.636867    2.020831   -1.246957
H      -0.606282    2.178829    0.023885
H       1.122718   -0.196053   -2.018263
H       2.658794   -0.906967   -0.172311
H       1.256766   -1.307602    0.846850
H       2.110283   -2.806810   -1.714819
H       1.284042   -3.530346   -0.312194
H      -1.061232   -2.192391    0.339991
H      -2.046116   -1.814833   -1.077666
H      -1.414492   -3.462804   -0.836532
H       0.433689   -4.128517   -3.068841
H      -1.321658   -3.819842   -3.110974
H      -0.304716   -3.355660   -4.492556
