16

O      -0.070759    0.005571    0.233650
C      -0.040923    1.201052    0.081583
N      -1.119681    2.025083   -0.123847
C      -0.822183    3.426628   -0.072867
C      -0.238801    3.956517    1.215750
C       0.672634    3.534475    0.085243
C       1.231245    2.111985    0.083427
C       2.134028    1.794381    1.178490
C       2.876563    1.551244    2.090843
H      -2.046942    1.657165    0.026109
H      -1.382732    4.064180   -0.746559
H      -0.314022    5.021437    1.407112
H      -0.300418    3.327270    2.097619
H       1.228589    4.298823   -0.441866
H       1.744774    1.924190   -0.869025
H       3.533403    1.322528    2.893144
