14

C      -0.085864    1.469536    0.019434
N      -0.011224    0.027124    0.041057
C      -0.039028   -0.764460   -1.125414
O      -0.065092   -0.376284   -2.276063
N      -0.034846   -2.029283   -0.605517
N      -0.002284   -2.074149    0.783962
C      -0.002718   -0.819381    1.122543
N      -0.079707   -0.345352    2.420758
H       0.847256    1.930679    0.362732
H      -0.255408    1.758429   -1.019897
H      -0.911719    1.824409    0.642707
H      -0.062728   -2.880458   -1.136315
H      -0.004963   -1.106137    3.084689
H       0.590736    0.383338    2.633583
