16

O      -0.043033    0.059122   -0.208897
C       0.014911    1.244020   -0.028156
C      -1.181099    2.266897    0.059641
N      -0.543108    3.596739    0.293821
C       0.693416    3.521209   -0.569678
C       1.721760    4.015419    0.480492
C       2.589039    2.721404    0.334060
C       1.135267    2.213366    0.178399
C       0.595242    3.252401    1.224372
H      -1.758402    2.265060   -0.870071
H      -1.854248    2.002681    0.881045
H       0.679479    3.678390   -1.650090
H       2.054217    5.039380    0.652107
H       3.226578    2.654866   -0.550895
H       3.129479    2.388978    1.223695
H       0.463562    3.087199    2.295614
