20

C       0.051096    1.599629    0.074098
C       0.129152    0.071331    0.052088
C       0.579496   -0.487870   -1.307363
C       0.657698   -1.987819   -1.333487
C       1.851627   -2.793598   -0.845166
C       1.354390   -2.971586   -2.246763
O       0.240995   -3.868590   -2.274395
C      -0.530530   -2.943661   -1.461627
H       1.026285    2.048792   -0.145335
H      -0.658119    1.971822   -0.673711
H      -0.272687    1.969002    1.052037
H       0.821710   -0.278048    0.827835
H      -0.851529   -0.350098    0.309076
H      -0.111449   -0.141647   -2.088938
H       1.562126   -0.069572   -1.562665
H       2.766412   -2.216717   -0.741125
H       1.734209   -3.606321   -0.132811
H       1.939796   -2.857495   -3.152519
H      -0.919173   -3.412847   -0.549601
H      -1.360616   -2.523817   -2.043599
