19

C       0.086271    1.356342    0.076222
O      -0.205338   -0.002895   -0.151376
C       0.569644   -0.588965   -1.164879
C       2.073677   -0.827759   -0.818135
C       2.378405   -2.176808   -1.463573
C       1.521736   -3.340753   -1.005450
O       0.364894   -2.861091   -0.319923
C       0.072336   -1.999174   -1.468872
C       1.192832   -2.657941   -2.294779
H       1.112073    1.506596    0.443989
H      -0.043459    1.958237   -0.837873
H      -0.612788    1.714559    0.835716
H       0.494990    0.009580   -2.091536
H       2.720774   -0.039863   -1.211855
H       2.190291   -0.857610    0.269570
H       3.378690   -2.411967   -1.809800
H       1.882680   -4.334681   -0.768228
H      -0.969934   -2.081806   -1.778022
H       1.190689   -2.980753   -3.325974
