17

N      -0.021084   -1.127125   -0.195387
C      -0.009531    0.026436   -0.126582
C       0.029346    1.482911   -0.033267
C       1.453823    2.025177    0.199286
C       1.453221    3.544072    0.240990
C       2.806472    4.273829    0.090688
C       2.164533    4.903572   -1.162167
O       0.962505    4.118847   -0.994350
H      -0.369523    1.913049   -0.957912
H      -0.636898    1.798341    0.778480
H       1.858969    1.633006    1.139175
H       2.107722    1.682535   -0.609620
H       0.850811    3.896191    1.091860
H       3.069111    4.963050    0.893785
H       3.652720    3.613172   -0.108229
H       1.958976    5.978445   -1.091068
H       2.656020    4.698961   -2.119806
