21

C      -0.733793    1.349956    0.159345
C      -0.029495   -0.000648    0.050322
C       0.802123   -0.238171   -1.233452
C       1.879767    0.803373   -1.586658
O       2.908524    0.028938   -0.916010
C       2.005611   -1.113001   -0.779951
C       1.778738   -1.489967    0.678441
C       0.944040   -0.315171    1.223696
O       1.765753    0.788091    1.581130
H      -0.012575    2.161946    0.275844
H      -1.350906    1.551199   -0.722700
H      -1.388839    1.372625    1.036346
H      -0.792931   -0.791247    0.068294
H       0.194416   -0.584948   -2.070345
H       2.088026    0.884244   -2.660725
H       1.783102    1.807752   -1.163557
H       2.322235   -1.937148   -1.427310
H       1.210842   -2.426920    0.726520
H       2.712770   -1.629095    1.230512
H       0.386554   -0.580235    2.127803
H       2.490367    0.808878    0.940369
