18

C      -0.042263    1.512921    0.080943
C       1.478850    1.483971   -0.032680
C       1.983032    0.474397    1.067956
C       2.425066   -0.513289   -0.042586
O       2.212452   -1.844393    0.356525
C       1.096902   -1.799772    1.263504
C       0.668599   -0.334568    1.290603
N      -0.001812    0.003146   -0.007586
C       1.303063    0.168443   -0.847571
H      -0.520689    1.909218    0.983214
H      -0.531870    1.921976   -0.807482
H       2.117678    2.320787   -0.312750
H       2.611859    0.749269    1.912191
H       3.422186   -0.397338   -0.468987
H       0.289715   -2.440588    0.893583
H       1.416405   -2.156882    2.251368
H       0.041166   -0.069375    2.142408
H       1.144541    0.086374   -1.920965
