21

C       0.769132    1.340934   -0.020860
O       0.964883   -0.037349   -0.228862
C      -0.053282   -0.626595   -1.007363
C       0.231407   -2.101603   -1.144837
C       0.579737   -2.949223    0.100994
C       1.725987   -3.638749   -0.705354
C       1.399923   -2.757676   -1.941645
C       0.281613   -3.308302   -2.838886
O      -0.750860   -2.739472   -1.994900
H       0.753035    1.898972   -0.970340
H      -0.174376    1.543032    0.510335
H       1.602039    1.702273    0.587191
H      -1.042895   -0.492037   -0.535073
H      -0.105291   -0.163969   -2.007032
H       0.940619   -2.344981    0.935451
H      -0.238580   -3.589860    0.436862
H       2.718511   -3.451221   -0.290759
H       1.618609   -4.715062   -0.866885
H       2.211218   -2.203089   -2.411072
H       0.244939   -2.881483   -3.849541
H       0.203286   -4.400721   -2.911148
