13

N       0.140154    1.294816   -0.036687
C      -0.069193    0.059736    0.037593
O       0.941040   -0.894814   -0.119600
N       1.524015   -1.429078    1.054447
C       0.722467   -1.977776    1.895075
C      -0.706090   -2.243035    1.837600
C      -1.637286   -1.682654    1.045420
C      -1.462719   -0.520928    0.155032
O      -2.395445   -0.042709   -0.451442
H       1.140891    1.483105   -0.136933
H       1.258650   -2.382753    2.751517
H      -1.028023   -3.024388    2.521249
H      -2.663495   -2.033752    1.095986
