16

O       0.001478    1.418413    0.068927
C      -0.039488    0.017978    0.052545
C      -0.438745   -0.804010    1.237605
C      -1.501412   -0.065308    2.060462
C      -2.457969   -0.053981    0.815968
C      -3.044655    1.261668    0.357130
O      -4.228811    1.441608    0.205951
C      -1.340629   -0.706443   -0.023697
H       0.764617    1.689722    0.591111
H       0.735450   -0.442357   -0.561880
H       0.159965   -1.634737    1.592390
H      -1.914150   -0.653761    2.880326
H      -1.198921    0.913806    2.443382
H      -3.286029   -0.750570    0.963030
H      -2.305914    2.065921    0.169983
H      -1.529027   -1.439209   -0.799556
