19

C       0.005308    1.430396    0.017077
C       1.482675    1.926065   -0.004813
C       2.203549    0.671758    0.469094
O       3.557681    0.501426    0.111436
C       3.961917   -0.778138    0.563276
O       3.196260   -1.836482    0.042314
C       1.805097   -1.758810    0.372724
C       1.338693   -0.415032   -0.162236
O       0.025669   -0.008734    0.151192
H      -0.555450    1.830488    0.867087
H      -0.523773    1.707862   -0.902644
H       1.806255    2.177393   -1.019031
H       1.641048    2.797406    0.633367
H       2.101359    0.585133    1.565851
H       4.983759   -0.930913    0.213290
H       3.922604   -0.798370    1.668609
H       1.322953   -2.615517   -0.103047
H       1.648956   -1.820847    1.461070
H       1.513965   -0.411439   -1.251274
