19

C       0.025767    1.500969    0.098693
C       1.447029    2.126728   -0.001088
N       2.352882    1.526355   -1.018995
C       1.574766    0.764961   -2.064320
C       2.585451   -0.413432   -2.136320
N       1.574633   -1.501537   -1.824367
C       1.112727   -0.320001   -1.025399
C      -0.001615   -0.048248   -0.064396
C       2.572537    0.083174   -0.675605
H      -0.442090    1.802885    1.040863
H      -0.589145    1.928156   -0.701388
H       1.343217    3.194950   -0.220349
H       1.966971    2.055350    0.962706
H       1.013655    1.240915   -2.871881
H       3.431806   -0.561969   -2.806039
H       0.959642   -1.647611   -2.630545
H       0.171775   -0.567115    0.885193
H      -0.980067   -0.370195   -0.438631
H       3.179242   -0.251369    0.167080
