19

C      -0.049271    1.574018    0.094360
C       0.019381    0.061352   -0.045667
C       1.113898   -0.561539   -0.987195
C       1.685360   -1.315354    0.224332
C       2.402242   -2.624001    0.264859
O       2.045793   -0.314619    1.183954
C       0.660298   -0.721507    1.125298
C       0.034684   -1.208942    2.305616
C      -0.539830   -1.612919    3.282620
H       0.927289    1.973138    0.381875
H      -0.346830    2.040218   -0.850777
H      -0.778642    1.866814    0.856998
H      -0.963508   -0.358543   -0.278723
H       0.691973   -1.216560   -1.753223
H       1.810898    0.141995   -1.450062
H       3.409194   -2.524755   -0.156239
H       2.493333   -2.974282    1.296068
H       1.865168   -3.377574   -0.319580
H      -1.035956   -1.969922    4.151027
