16

N       0.135125    1.362421    0.176226
C      -0.060569   -0.004142    0.049802
C      -1.230597   -0.679478    0.031810
C      -1.198237   -2.110747   -0.019334
C      -0.019612   -2.788416   -0.055071
N       0.127270   -4.167562   -0.171834
C       1.228236   -2.037645   -0.019816
N       2.368776   -2.607893   -0.017459
O       1.129568   -0.656778    0.014719
H       0.988301    1.684157   -0.261463
H      -0.663271    1.914318   -0.102253
H      -2.168663   -0.141735    0.059679
H      -2.135589   -2.657472   -0.040736
H      -0.600520   -4.713438    0.265260
H       1.059765   -4.467472    0.083678
H       3.125091   -1.926835    0.022040
