16

C      -0.139432    1.582377   -0.001432
C       0.059427    0.075603    0.037011
C       1.160418   -0.597604   -0.845756
O       2.396756    0.154028   -0.744007
C       2.709863    0.424378    0.547886
N       2.032230    0.100048    1.568841
C       0.770986   -0.616795    1.258519
C       1.147931   -1.699155    0.243497
O       1.228798   -2.891022    0.234277
H       0.781986    2.127547    0.210811
H      -0.497306    1.894458   -0.987593
H      -0.885490    1.885182    0.739448
H      -0.886124   -0.442164   -0.155520
H       1.005194   -0.824059   -1.898628
H       3.639785    0.981860    0.623625
H       0.222792   -0.852342    2.168631
