22

C      -0.049113    1.493999   -0.357027
C      -0.027617    0.007446   -0.075530
C       1.168792   -0.773818   -0.476388
N       0.895071   -0.513160    0.954285
C      -1.386533   -0.707870   -0.032635
O      -1.209721   -2.070536    0.314293
C      -2.361922   -0.023178    0.909485
C      -3.359334    0.988455    0.394774
C      -3.821494   -0.376750    0.834633
H       0.968538    1.893720   -0.418629
H      -0.546841    1.703560   -1.310429
H      -0.588217    2.041948    0.421193
H       1.060961   -1.812526   -0.769211
H       1.988608   -0.238294   -0.947635
H       1.496745    0.225225    1.308397
H      -1.815701   -0.704942   -1.044500
H      -0.576273   -2.062937    1.048392
H      -1.958297    0.155284    1.903741
H      -3.596487    1.844165    1.017614
H      -3.360453    1.205435   -0.668947
H      -4.124316   -1.084723    0.070321
H      -4.379239   -0.459756    1.760635
