18

N      -0.051110    1.280795   -0.133651
C      -0.016334    0.024178   -0.041110
O       1.120759   -0.744441   -0.025854
C       0.730075   -2.142673    0.088215
C      -0.642098   -2.168848   -0.597588
C      -1.216535   -0.913854    0.069637
O      -1.538291   -1.205825    1.427987
C      -0.402231   -1.507693    2.235792
C       0.566243   -2.503685    1.569636
H       0.895619    1.664115   -0.188474
H       1.507608   -2.728459   -0.403792
H      -0.544195   -2.040496   -1.679714
H      -1.228590   -3.062849   -0.381638
H      -2.111552   -0.490846   -0.382441
H       0.138367   -0.580939    2.473937
H      -0.799144   -1.909039    3.171265
H       0.184267   -3.528293    1.638651
H       1.530469   -2.471287    2.087188
