18

C      -0.040278    1.242719    0.683793
O      -0.196043    0.361891   -0.418195
C      -1.291600   -0.534642   -0.321198
C      -1.681841   -0.908665   -1.720141
C      -1.751755   -2.161442   -2.152837
C      -1.443365   -3.348085   -1.298379
N      -1.024701   -2.974919    0.037767
C      -0.930315   -1.728485    0.579090
O      -0.567247   -1.560622    1.731339
H       0.776557    1.920462    0.422854
H      -0.954398    1.834918    0.848109
H       0.199994    0.701349    1.602687
H      -2.135456   -0.024380    0.175928
H      -1.894118   -0.075068   -2.382911
H      -2.040535   -2.383117   -3.175855
H      -2.326780   -4.004149   -1.246451
H      -0.655285   -3.946274   -1.781436
H      -0.771641   -3.713282    0.679537
