19

O       0.205872    1.166092   -0.179788
C      -0.016456   -0.201840   -0.016211
C      -0.569371   -0.674150    1.320394
O      -0.872825    0.329310    2.258436
C      -1.441291   -0.717096    0.105138
C      -2.633114    0.206297   -0.138259
C      -3.599113   -0.698186   -0.940911
C      -2.675218   -1.815476   -1.442638
O      -1.735441   -2.003540   -0.387064
H      -0.081303    1.584549    0.643883
H       0.715109   -0.820426   -0.527824
H      -0.235835   -1.626173    1.728468
H      -0.106718    0.435355    2.833499
H      -3.077054    0.561711    0.794056
H      -2.314601    1.082253   -0.710229
H      -4.364364   -1.119219   -0.282626
H      -4.103549   -0.169265   -1.752972
H      -3.176122   -2.770860   -1.616240
H      -2.160485   -1.514260   -2.368615
