16

O       0.076115    1.310317   -0.280634
C      -0.053957   -0.067044    0.047810
C      -1.542494   -0.353160    0.164412
N      -2.191442   -0.005430   -1.089083
C      -3.424172   -0.424603   -1.428967
N      -4.168836    0.009123   -2.419575
C      -5.258438   -0.806970   -2.301315
N      -5.238024   -1.681173   -1.333812
O      -3.975008   -1.421117   -0.723619
H       0.991521    1.487710   -0.514100
H       0.382615   -0.705244   -0.733653
H       0.435734   -0.304001    1.003445
H      -1.702696   -1.413988    0.371176
H      -1.959244    0.220557    1.004500
H      -1.885872    0.855358   -1.517912
H      -6.109932   -0.748826   -2.965379
