18

C      -0.121665    1.434805    0.058494
N      -0.155953    0.004559    0.315306
C      -1.219041   -0.641747    0.156031
C      -1.413265   -2.121540    0.399073
O      -2.683729   -2.401901   -0.170577
C      -3.395015   -1.191921   -0.267206
C      -4.368318   -0.980746    0.893344
O      -3.698849   -0.864924    2.132202
O      -2.427545   -0.138076   -0.267298
H       0.666475    1.645376   -0.672631
H      -1.064838    1.852790   -0.311970
H       0.157235    1.957493    0.980783
H      -0.649597   -2.718461   -0.105093
H      -1.396827   -2.340414    1.473361
H      -3.927548   -1.175919   -1.226507
H      -4.997541   -0.104038    0.676667
H      -5.017990   -1.858707    0.959351
H      -3.230282   -0.023516    2.128274
