20

C       0.216829    1.442491   -0.160300
C       0.019327   -0.052541    0.035155
C      -1.436955   -0.457994   -0.174448
O       0.876158   -0.823323   -0.871102
C       1.414616   -1.601593    0.212486
C       2.770453   -1.064999    0.730054
C       2.009957   -0.207359    1.790793
C       0.653772   -0.754029    1.269085
H       1.268519    1.724983   -0.076604
H      -0.128105    1.735048   -1.157589
H      -0.358270    2.011983    0.577825
H      -1.752761   -0.217846   -1.194606
H      -1.566396   -1.533717   -0.023065
H      -2.094043    0.070408    0.525418
H       1.301183   -2.677535    0.051826
H       3.416407   -1.831302    1.167323
H       3.333420   -0.516525   -0.028270
H       2.215212   -0.521344    2.816846
H       2.149478    0.874571    1.738900
H      -0.045167   -1.154961    2.003253
