18

C       0.774997    0.486343   -0.420406
C      -0.352452    0.460331    0.587440
O      -0.353267    1.132354    1.591245
C      -1.563470   -0.433182    0.277015
N      -1.191891   -1.607913   -0.504740
C      -1.074423   -2.879623    0.163351
C      -2.180728   -2.645128   -0.832851
C      -3.577553   -2.603754   -0.322726
O      -4.516760   -3.048517   -0.934407
H       1.494445    1.256394   -0.140368
H       1.266585   -0.490970   -0.457739
H       0.387795    0.668815   -1.428137
H      -2.055980   -0.646061    1.234848
H      -2.254021    0.175962   -0.322413
H      -0.239313   -3.512759   -0.122979
H      -1.358556   -2.936385    1.214490
H      -2.092487   -3.057185   -1.834654
H      -3.708045   -2.143360    0.681074
