17

N       0.535768    0.262696    0.868934
C      -0.180405    0.357254   -0.274557
O       0.071619    1.117497   -1.192026
C      -1.406941   -0.570979   -0.336190
C      -1.531187   -1.223218   -1.716972
C      -2.683451   -2.214089   -1.674951
O      -2.532052   -3.150353   -0.586899
C      -1.908382   -2.694997    0.516042
N      -1.394038   -1.559193    0.741732
H       1.348259    0.842975    0.989059
H       0.269540   -0.426116    1.554604
H      -2.268139    0.095230   -0.177674
H      -1.691720   -0.467599   -2.488018
H      -0.600642   -1.748163   -1.959686
H      -3.643396   -1.699624   -1.543748
H      -2.740958   -2.825069   -2.578372
H      -1.882752   -3.474589    1.275493
