18

C       0.036890    1.547794   -0.048958
C      -0.074048    0.046679   -0.061430
N       0.329553   -0.690223   -1.282208
C      -0.550896   -1.832777   -0.797041
C       0.374703   -2.709672   -0.001966
C       0.950685   -2.074829    1.022367
C       0.356387   -0.720596    1.280992
O      -1.072266   -0.971143    1.564680
C      -1.326463   -0.803863    0.180510
H       1.084241    1.857045   -0.136980
H      -0.517702    1.993416   -0.882343
H      -0.365681    1.956473    0.882818
H      -0.149641   -0.236398   -2.061250
H      -1.121588   -2.340036   -1.574724
H       0.578227   -3.735061   -0.287937
H       1.699888   -2.502271    1.678206
H       0.824450   -0.132126    2.071420
H      -2.365988   -0.565470   -0.059954
