19

O       0.169901   -0.106146   -0.046258
C       0.089595    1.102059   -0.031560
C       1.289143    1.987479    0.027766
C       2.464290    1.500506    0.867346
C       2.568143    1.476690   -0.617852
C      -1.248603    1.828978   -0.105054
C      -1.652003    2.279493   -1.539010
C      -2.800242    1.265186   -1.354901
O      -2.384116    0.967300   -0.005931
H       1.105617    3.056544    0.004373
H       3.017390    2.248899    1.422862
H       2.313494    0.553998    1.373534
H       2.487899    0.512555   -1.106840
H       3.198289    2.206577   -1.112783
H      -1.269380    2.625610    0.652431
H      -1.958545    3.322698   -1.620412
H      -0.932101    2.049175   -2.325813
H      -3.814271    1.679690   -1.386904
H      -2.751854    0.379674   -1.998888
