13

N       0.017878    1.392618   -0.119511
C      -0.008046    0.025858   -0.044610
C      -1.176290   -0.693896   -0.018786
C      -1.202177   -2.124331    0.006859
O      -2.150979   -2.861437    0.029373
O       0.085622   -2.751825    0.012588
C       1.206768   -2.032405   -0.009615
C       1.242385   -0.687003   -0.038299
H       0.862901    1.867945    0.150522
H      -0.833268    1.893098    0.079306
H      -2.143549   -0.206262   -0.019674
H       2.094131   -2.656520   -0.001872
H       2.190678   -0.166079   -0.064744
