19

C       0.113681    1.391753   -0.177233
N       0.049369   -0.036048    0.096852
C       0.609589   -0.335182    1.412496
C      -1.301059   -0.588404   -0.050951
C      -2.050134   -0.174960   -1.298741
C      -2.387985   -1.267192   -1.987589
N      -1.936562   -2.432933   -1.355447
C      -1.250389   -2.141136   -0.193986
O      -0.731516   -2.954389    0.535701
H       1.145923    1.728456   -0.042542
H      -0.173537    1.599875   -1.210336
H      -0.525997    1.998805    0.493520
H       0.069269    0.185731    2.227627
H       0.565377   -1.407656    1.599197
H       1.654832   -0.012500    1.439097
H      -1.922919   -0.362787    0.842259
H      -2.329651    0.835374   -1.549974
H      -2.959037   -1.348930   -2.901605
H      -1.998439   -3.367286   -1.724345
