16

C      -0.081551    1.534830   -0.000393
C      -0.012425    0.020207   -0.020170
O      -1.345165   -0.486236    0.039424
C      -1.449105   -1.827591    0.030349
C      -0.529041   -2.828270   -0.025483
O      -1.148333   -4.030317   -0.007749
N      -2.525404   -3.830606    0.062051
C      -2.691626   -2.533509    0.083949
O      -3.897510   -1.951336    0.149387
H       0.926928    1.955999   -0.045262
H      -0.651763    1.905136   -0.856465
H      -0.564964    1.886001    0.915092
H       0.472969   -0.344686   -0.937466
H       0.559631   -0.363938    0.837365
H       0.546280   -2.849475   -0.078560
H      -4.559123   -2.655813    0.174435
