15

C      -0.019749    1.526782   -0.031392
C      -0.038708    0.013338    0.033315
O      -0.048659   -0.598612    1.101811
C      -0.039323   -0.730993   -1.193163
C      -0.031805   -2.098929   -1.397343
N      -0.103679   -3.070668   -0.463379
N       0.021764   -2.361669   -2.754050
C       0.036906   -1.181383   -3.297829
O       0.000735   -0.145526   -2.456793
H       0.863217    1.879370   -0.574903
H      -0.896335    1.900186   -0.571450
H      -0.013393    1.926455    0.983105
H       0.018895   -2.766044    0.492209
H       0.159938   -4.004555   -0.728024
H       0.074486   -0.953213   -4.352535
