20

C       0.022958    1.458035   -0.169416
C       0.026330   -0.023080    0.157850
O       0.246193   -0.819268   -1.006172
C       1.420677   -1.589127   -0.802064
C       1.598831   -1.605512    0.726150
C       0.768731   -2.713592    1.386909
C       3.053507   -1.639825    1.175688
O       1.068017   -0.313059    1.063293
H       0.984596    1.746687   -0.601678
H      -0.773096    1.678336   -0.885516
H      -0.149228    2.042546    0.738870
H      -0.946602   -0.325600    0.581554
H       1.268855   -2.584692   -1.230882
H       2.287113   -1.121072   -1.291743
H       1.201936   -3.697832    1.181566
H       0.741002   -2.566817    2.470261
H      -0.258160   -2.712116    1.010155
H       3.604024   -0.797192    0.749292
H       3.119732   -1.578068    2.265713
H       3.533470   -2.571015    0.858402
