12

C      -0.015012    1.523810   -0.074198
C      -0.008030    0.039115    0.060704
N      -0.046662   -0.732741   -1.012703
O      -0.029958   -2.089167   -0.612913
C       0.019125   -2.059617    0.718922
C       0.035753   -0.795290    1.214737
O       0.084703   -0.845273    2.536371
N       0.097364   -2.318041    2.828068
N       0.058056   -2.950017    1.742001
H       0.884674    1.956274    0.374325
H      -0.054400    1.799968   -1.128890
H      -0.880258    1.953899    0.439617
