22

C      -1.100560    0.529488    1.636169
C      -0.025354   -0.207869    0.842145
O      -0.507452   -0.830938   -0.342366
C      -0.984983   -2.154809   -0.216683
C      -2.480611   -2.227051    0.070555
C      -3.275340   -3.557692    0.111783
C      -2.630614   -3.770797    1.497887
N      -2.991381   -2.271794    1.539215
C      -4.313969   -2.730987    0.899779
H      -0.640970    1.057692    2.479449
H      -1.597652    1.269827    1.001391
H      -1.851972   -0.163026    2.025403
H       0.741678    0.499142    0.504842
H       0.476478   -0.953956    1.477995
H      -0.816124   -2.629309   -1.192957
H      -0.387163   -2.706918    0.520720
H      -2.960644   -1.414324   -0.485649
H      -3.439058   -4.283853   -0.692625
H      -3.186032   -4.361385    2.231738
H      -1.563625   -3.983822    1.566169
H      -4.846744   -1.932426    0.376677
H      -4.967827   -3.261484    1.597092
