13

N       0.045550    1.351747   -0.128559
C      -0.032017   -0.016151   -0.032243
N      -1.142195   -0.705543   -0.006001
C      -0.702564   -2.026150   -0.008187
C      -1.054363   -3.337997    0.000476
O       0.072929   -4.098326   -0.010315
N       1.229721   -3.286415   -0.023187
C       0.717493   -2.086596   -0.020916
N       1.145809   -0.774642   -0.008719
H       0.778466    1.790409    0.411217
H      -0.854234    1.790993    0.008491
H      -1.981082   -3.887345    0.010195
H       2.065696   -0.435561   -0.233102
