9

N       0.004164   -1.141443   -0.003635
C      -0.025804    0.014784    0.003062
C      -0.008951    1.434118    0.010707
N      -1.131656    2.169484    0.029183
N      -0.668322    3.402313    0.030109
N       0.650746    3.556713    0.014041
C       1.099990    2.305996    0.001334
H      -1.291712    4.195329    0.042520
H       2.153355    2.080423   -0.013406
