21

C       0.246125    1.244823    0.293256
O      -0.210945    0.009444   -0.223957
C       0.548452   -0.499768   -1.285689
C       0.367287    0.233836   -2.595652
C       1.872224   -1.126533   -0.934371
C       0.672379   -2.024334   -1.260530
C       0.023928   -2.800889   -0.121705
C       0.691345   -2.727154   -2.516895
C       0.694275   -3.347048   -3.548611
H       1.303760    1.195293    0.588510
H       0.123336    2.067535   -0.424163
H      -0.360759    1.459622    1.175951
H       0.766698    1.251703   -2.536985
H       0.880728   -0.284388   -3.407151
H      -0.696390    0.295759   -2.846317
H       2.681838   -1.077848   -1.653647
H       2.177606   -1.105634    0.106345
H      -0.016053   -2.193956    0.783058
H      -0.998746   -3.086274   -0.385438
H       0.589115   -3.715341    0.082300
H       0.697944   -3.890068   -4.460819
