15

O       0.181954    1.240024    0.414155
C       0.089624   -0.098455    0.016048
C      -1.363640   -0.642150   -0.052228
C      -1.333422   -1.503958   -1.308947
C      -0.235853   -1.320313   -2.053556
C       0.621017   -0.307461   -1.410613
O       1.539643    0.333503   -1.870495
C      -1.820738   -1.363521    1.128035
C      -2.192338   -1.975677    2.092806
H       0.909270    1.615081   -0.104792
H       0.667552   -0.759936    0.682774
H      -2.022095    0.220632   -0.224878
H      -2.153538   -2.173895   -1.540618
H      -0.014587   -1.774620   -3.010482
H      -2.521752   -2.505997    2.952010
