18

C       0.010047    1.554200   -0.032980
C       0.104285    0.047116    0.046330
C       1.365358   -0.732093   -0.096700
O       2.484212    0.011111    0.470093
C       1.901588   -0.095317    1.727414
N       2.362700    0.147953    2.869931
C       0.648560   -0.746446    1.244417
C      -0.096684   -1.780350    2.044287
O       0.774444   -2.660080    2.726758
H       0.925580    2.027483    0.327509
H      -0.148023    1.871519   -1.068943
H      -0.827948    1.924366    0.565243
H      -0.744165   -0.482478   -0.387835
H       1.609614   -1.518468   -0.797805
H       3.314722    0.514430    2.824449
H      -0.781316   -1.271204    2.741535
H      -0.713527   -2.396135    1.380705
H       1.331895   -2.115227    3.297255
