18

C      -0.191970    1.014276    0.205994
C       0.245388   -0.465873    0.207777
N       0.826349   -0.850897   -1.067215
C       0.089705   -1.328168   -1.996863
N      -1.255590   -1.576556   -1.967782
C       0.796760   -1.711318   -3.290885
O       2.172101   -1.509245   -3.210309
C       1.240535   -0.690788    1.273199
N       1.996022   -0.853696    2.131376
H       0.658406    1.650465   -0.047950
H      -0.973916    1.168408   -0.543052
H      -0.577010    1.308663    1.185619
H      -0.621406   -1.092917    0.476019
H      -1.843426   -1.142474   -1.277451
H      -1.716376   -1.832112   -2.825394
H       0.562675   -2.766917   -3.509091
H       0.356807   -1.115550   -4.109552
H       2.315927   -1.151412   -2.315697
