21

C      -0.428358    1.516650    0.554796
C      -0.130896    0.034477    0.557258
N       1.085528   -0.446142   -0.133858
C       0.965137   -0.609286    1.332951
C       1.999543    0.227148    2.101137
O       2.574995    1.246161    1.317681
C       0.805623   -1.987269    1.913171
C      -0.180392   -2.257090    2.992877
N      -0.346878   -2.863415    1.661661
H      -0.854446    1.815929   -0.408720
H      -1.162541    1.754589    1.332384
H       0.475682    2.097676    0.738129
H      -1.018698   -0.578666    0.400180
H       0.913191   -1.325636   -0.613756
H       1.528443    0.690547    2.976724
H       2.776187   -0.459186    2.479830
H       2.526695    0.914919    0.405979
H       1.743697   -2.540494    1.947441
H       0.056369   -2.953243    3.792129
H      -0.844952   -1.444711    3.275987
H      -1.076304   -2.371115    1.152425
