18

C      -0.087924    1.542517   -0.011774
C       0.069098    0.022927    0.008271
C       0.778652   -0.538468   -1.238617
N       0.992774   -1.979311   -1.193880
C       1.294396   -2.459047   -0.054156
N       1.695498   -3.778336    0.107408
N       1.326517   -1.722396    1.137692
C       0.795927   -0.447564    1.261989
O       0.902473    0.180394    2.292063
H       0.886752    2.033690   -0.096837
H      -0.701443    1.852290   -0.862899
H      -0.556404    1.895615    0.908617
H      -0.926685   -0.444745    0.054992
H       0.185615   -0.303060   -2.127714
H       1.745411   -0.024377   -1.368053
H       1.578098   -4.299841   -0.750950
H       1.293288   -4.254490    0.904279
H       1.823761   -2.080832    1.940906
