17

C      -0.047904    1.564325    0.002968
C       0.083768    0.064838   -0.016328
N      -0.742158   -0.774537    0.885706
C       0.735239   -0.760068    1.069731
C       1.449570   -1.946886    0.420806
C       1.126919   -1.765862   -1.046967
C       0.410967   -0.667071   -1.283425
C       1.273067   -0.153530    2.251792
N       1.699587    0.334037    3.211438
H       0.802571    2.035935   -0.498866
H      -0.960254    1.875008   -0.517860
H      -0.090477    1.946988    1.026782
H      -1.156597   -0.181341    1.605443
H       2.528479   -1.914052    0.613206
H       1.075984   -2.898311    0.815272
H       1.439056   -2.485454   -1.794617
H       0.064851   -0.326386   -2.251830
