19

C       0.001176    1.525215    0.014156
C      -0.027987    0.001801    0.001007
C       0.693036   -0.584031   -1.240136
O       0.691095   -2.011838   -1.185281
C       0.021059   -2.476307   -0.021312
O       0.713366   -2.032314    1.137608
C       0.716577   -0.605696    1.217593
C      -1.390519   -1.937761   -0.003036
C      -1.414235   -0.605669    0.008937
H       1.028558    1.904185    0.007575
H      -0.513332    1.933790   -0.861912
H      -0.496246    1.918196    0.907064
H       0.200869   -0.257038   -2.165542
H       1.736270   -0.239469   -1.259013
H       0.096243   -3.562992   -0.031611
H       1.760035   -0.261331    1.222572
H       0.242264   -0.295164    2.157872
H      -2.252864   -2.593046   -0.000554
H      -2.308141    0.009070    0.022921
