14

C      -0.051788    1.476603   -0.032690
C      -0.018036   -0.016227    0.033037
N      -0.012832   -0.762273   -1.072569
N       0.010784   -2.028830   -0.633989
C       0.027434   -2.125338    0.725973
C       0.008328   -0.828655    1.198424
N      -0.063153   -0.372539    2.527798
H       0.842373    1.927789    0.417259
H      -0.102330    1.800198   -1.074338
H      -0.920095    1.882509    0.499529
H       0.012398   -2.778351   -1.302615
H       0.045599   -3.076707    1.233338
H       0.277458   -1.054717    3.193203
H       0.448752    0.490961    2.661796
