21

C       0.504753    1.386561    0.295956
C       0.690513   -0.084949   -0.084908
C      -0.016429   -0.472895   -1.388745
O       0.450996    0.288020   -2.499221
C       0.029380   -1.975495   -1.640355
C      -0.050472   -2.569242   -3.001014
C       1.236944   -2.742884   -2.200996
C       2.475485   -2.084027   -2.673156
O       3.589486   -2.461732   -2.395403
H       0.861335    2.051875   -0.495726
H      -0.552565    1.617423    0.465003
H       1.051641    1.627204    1.212018
H       1.759584   -0.323550   -0.183121
H       0.314678   -0.728907    0.719223
H      -1.080462   -0.208989   -1.298132
H       1.384282    0.482118   -2.362432
H      -0.474036   -2.530250   -0.851527
H      -0.659279   -3.449597   -3.171374
H       0.003075   -1.874479   -3.832738
H       1.427199   -3.707000   -1.740698
H       2.319404   -1.210697   -3.343286
