17

C       0.032677   -1.225412   -0.029872
C      -0.004858   -0.025072   -0.057077
C      -0.036260    1.433540   -0.077245
C       1.336017    2.049001    0.050298
C       2.303332    1.797013    1.239520
C       2.990138    3.083279    0.782532
C       2.831742    3.073613   -0.747637
O       2.192884    1.853582   -1.116352
C       1.720013    3.583913    0.098150
H       0.063979   -2.286567   -0.014808
H      -0.494825    1.789311   -1.007747
H      -0.659165    1.804345    0.746922
H       1.803336    1.931028    2.202387
H       2.855806    0.853642    1.216081
H       3.747170    3.667633    1.289222
H       3.498894    3.554134   -1.450330
H       1.161851    4.508699    0.143625
