16

C       0.081429    1.523282   -0.160366
N       0.037433    0.066579   -0.039309
C      -1.116350   -0.492780    0.724709
C      -0.284418   -1.732164    1.186000
N      -0.577997   -1.595072    2.644390
C      -0.538903   -0.181080    2.163890
C       0.669270   -0.495792    1.192921
C       2.078869   -0.441058    1.474206
N       3.211857   -0.372487    1.693759
H       1.089665    1.825932   -0.457532
H      -0.609601    1.829974   -0.951112
H      -0.184962    2.063567    0.762610
H      -2.147118   -0.451624    0.371678
H      -0.121613   -2.676713    0.670023
H      -1.541514   -1.876427    2.840775
H      -0.681465    0.672061    2.825786
