22

C      -0.026693    1.508432   -0.323658
C       0.041892    0.017986   -0.090973
N       1.381519   -0.604326   -0.170819
C       0.660427   -0.622204    1.093443
C       1.197797   -0.089436    2.426042
C       0.694325    1.219094    3.002723
O       0.621099   -1.235473    3.110509
C       0.185881   -1.850246    1.875336
C      -1.287334   -2.210283    1.889854
H       0.854947    2.005811    0.086451
H      -0.064008    1.724489   -1.396827
H      -0.919725    1.941306    0.139446
H      -0.781159   -0.542270   -0.536051
H       1.337827   -1.516436   -0.620779
H       2.295607   -0.129201    2.464183
H      -0.390600    1.306608    2.895149
H       0.938078    1.264640    4.068950
H       1.168780    2.073363    2.510126
H       0.791996   -2.744260    1.655727
H      -1.903099   -1.326097    2.076714
H      -1.587857   -2.653288    0.933573
H      -1.487346   -2.943913    2.677255
