21

C      -0.137781    1.579678    0.027923
C      -0.021534    0.045534   -0.009636
C      -1.431405   -0.575037   -0.094757
C       0.829054   -0.451321   -1.169968
C       1.801787   -1.281652   -0.787535
C       1.850026   -1.418760    0.695753
C       2.178967   -0.123940    1.436341
C       0.744874   -0.526779    1.208911
O       0.004314   -0.942925    2.319615
H       0.843326    2.060207    0.072493
H      -0.655753    1.955671   -0.861034
H      -0.714763    1.902671    0.902786
H      -1.922696   -0.268335   -1.024253
H      -1.380828   -1.666699   -0.077547
H      -2.055461   -0.254421    0.744299
H       0.618865   -0.154230   -2.192380
H       2.507649   -1.771940   -1.448638
H       2.087451   -2.362458    1.173054
H       2.527403   -0.228631    2.459070
H       2.626239    0.687333    0.871790
H      -0.163427   -0.171025    2.871103
