17

O       0.156323    1.337308    0.393883
C      -0.004407    0.021842   -0.124985
C      -1.409813   -0.476281   -0.080206
C      -2.276000   -0.900028    1.098979
C      -3.557579   -0.490203    0.317737
C      -2.690372   -0.052548   -0.874531
C      -3.219131   -1.478835   -0.770455
O      -4.099153   -2.173239   -1.553338
C      -1.925646   -1.909972    0.012919
H      -0.434408    1.917792   -0.096641
H       0.382706   -0.043335   -1.155804
H       0.628871   -0.621745    0.496503
H      -2.040556   -0.918891    2.155108
H      -4.521550   -0.113041    0.629437
H      -2.888273    0.715845   -1.611219
H      -3.696159   -2.313876   -2.418413
H      -1.365248   -2.833577    0.084135
