16

C       0.000650    1.556378    0.015144
C       0.072646    0.047355    0.060733
C       1.324747   -0.729516   -0.175677
O       2.475733   -0.031746    0.290058
C       1.992418   -0.091406    1.656648
C       0.681842   -0.755393    1.218992
C      -0.012194   -1.768010    1.930161
C      -0.599472   -2.618318    2.548354
H       0.974149    2.002747    0.229685
H      -0.300777    1.889537   -0.983409
H      -0.729373    1.942898    0.733293
H      -0.804485   -0.470520   -0.321401
H       1.469496   -1.510066   -0.914307
H       2.620054   -0.758056    2.255794
H       1.931527    0.895979    2.127247
H      -1.117679   -3.370432    3.089571
