14

N      -0.080815    1.502169    0.097051
C       0.017885    0.053183    0.033727
C       0.678398   -0.541816   -1.259148
C      -0.043325   -0.146842   -2.453786
C      -0.670549    0.202385   -3.425814
C      -1.370937    0.590324   -4.532232
N      -1.967979    0.924019   -5.470907
C       0.764241   -0.443368    1.200173
N       1.380115   -0.851020    2.087931
H       0.836944    1.932701    0.036440
H      -0.636471    1.843278   -0.681004
H      -0.999275   -0.350697    0.099055
H       1.717627   -0.196296   -1.318825
H       0.710697   -1.635741   -1.186262
