19

C       0.229011   -1.030613    1.852532
C       0.009865   -0.475603    0.439617
C      -1.401434   -0.671739   -0.097293
C      -2.491430    0.078933    0.633118
O      -2.219098    1.473033    0.540055
C      -1.577178   -0.840824   -1.586521
C      -1.772216   -2.021463   -0.666242
H       1.273287   -0.913448    2.158747
H      -0.386802   -0.509862    2.592757
H      -0.018502   -2.096523    1.903111
H       0.242266    0.594894    0.424419
H       0.714411   -0.958428   -0.248396
H      -3.467129   -0.164731    0.182812
H      -2.531387   -0.241209    1.686129
H      -2.830817    1.936755    1.119089
H      -2.454303   -0.402595   -2.050639
H      -0.689256   -0.818661   -2.209367
H      -1.012337   -2.796038   -0.658806
H      -2.780603   -2.393141   -0.514532
