21

C       0.013271    1.601420   -0.154796
C       0.017779    0.078342   -0.016047
C       0.721198   -0.472027    1.269099
C       0.698708   -2.019637    1.232311
C       2.112251   -0.019365    1.305675
C       3.269692    0.303195    1.301023
C      -0.044098    0.077065    2.506418
C      -1.350318   -0.604673    2.884577
O       0.366293    1.023539    3.131490
H       1.033620    1.993472   -0.163595
H      -0.474365    1.893633   -1.089630
H      -0.518867    2.085676    0.669053
H      -1.008653   -0.307064   -0.034747
H       0.531115   -0.369976   -0.874206
H       1.275329   -2.372969    0.373749
H       1.147507   -2.443010    2.135063
H      -0.322015   -2.399218    1.136189
H       4.287415    0.605925    1.317672
H      -1.983506   -0.804636    2.015630
H      -1.141487   -1.570318    3.358279
H      -1.881524    0.028521    3.595943
