13

C      -0.032396    1.406123    0.098145
N       0.137716   -0.038757    0.071875
C       0.596853   -0.593778   -0.950815
N       0.816740   -1.955284   -1.140454
C       1.298456   -2.123067   -2.407150
N       1.428972   -1.007170   -3.054667
O       1.000994   -0.018905   -2.152836
C       1.627420   -3.390191   -2.964297
N       1.880906   -4.439434   -3.376992
H       0.810305    1.874078    0.621396
H      -0.110534    1.860689   -0.896465
H      -0.937572    1.643821    0.663839
H       0.605757   -2.663971   -0.459582
