18

C      -0.179678    1.589747    0.050382
C       0.032098    0.067910    0.011342
C       0.825483   -0.417956   -1.182778
C       1.821779   -1.247093   -0.830715
C       2.718014   -1.890367   -1.728113
N       3.455234   -2.434467   -2.437168
C       1.914604   -1.399875    0.657995
C       2.250731   -0.120299    1.395198
C       0.808120   -0.513311    1.200216
H       0.774681    2.121861    0.099445
H      -0.714640    1.934841   -0.840097
H      -0.770258    1.871772    0.927124
H      -0.963184   -0.400917   -0.025641
H       0.609742   -0.109529   -2.199176
H       2.177471   -2.359676    1.085577
H       2.649784   -0.216842    2.399076
H       2.668539    0.699217    0.820121
H       0.246998   -0.813242    2.077076
