18

C       0.170770    1.460321   -0.006521
O      -0.305470    0.155461    0.293314
C       0.491015   -0.521634    1.215914
C       0.095484   -1.994003    1.474782
C      -0.450563   -2.836848    0.292208
C       0.988907   -3.408771    0.114735
N       1.503443   -2.434698    1.139816
C       1.807061   -1.142174    0.642118
O       2.674654   -0.768003   -0.094902
H       1.176098    1.427876   -0.440710
H      -0.526759    1.891447   -0.727426
H       0.190109    2.089801    0.896002
H       0.631532    0.060340    2.140635
H      -0.270727   -2.240341    2.472501
H      -1.223679   -3.561721    0.550829
H      -0.794660   -2.223572   -0.542586
H       1.112339   -4.439517    0.454212
H       1.465635   -3.289293   -0.860866
