14

O      -0.857408    0.940557    0.498548
C       0.106839    0.986525   -0.218313
C       1.330330    1.856820    0.055709
C       1.353111    2.491305    1.472653
N       2.720043    2.164660    1.906799
C       3.208142    1.237142    1.010117
N       2.544344    1.026703   -0.066801
C       4.457628    0.582605    1.294199
N       5.456437    0.067953    1.562865
H       0.185119    0.385376   -1.146943
H       1.353553    2.618356   -0.738243
H       1.194361    3.571377    1.459340
H       0.590429    2.030510    2.110418
H       2.929641    2.060498    2.888610
