11

O      -0.063747   -0.022628   -0.001928
C       0.018021    1.178564    0.006699
C       1.283545    1.932742   -0.000845
N       2.478063    1.404716   -0.018015
N       3.317558    2.467118   -0.018424
C       2.686068    3.709335   -0.001701
O       3.165689    4.816689    0.002134
N       1.347595    3.312083    0.009499
H      -0.883963    1.830921    0.021507
H       4.313933    2.324281   -0.030363
H       0.581794    3.964121    0.023307
