17

N      -0.023130    1.344628   -0.178566
C      -0.071591   -0.044251   -0.063828
C      -1.142202   -0.919609    0.067658
C      -0.522012   -2.184059    0.247931
N       0.799669   -2.119061    0.212905
N       1.052799   -0.795263    0.028033
C      -2.586638   -0.594822    0.045771
C      -3.169796    0.208144   -1.069413
N      -3.476717   -1.224821   -0.954626
H       0.584534    1.673698   -0.919719
H      -0.949100    1.733332   -0.301688
H      -1.007842   -3.139849    0.386700
H       2.005367   -0.472928    0.025756
H      -3.074544   -0.506163    1.015488
H      -4.008819    0.872383   -0.881501
H      -2.504185    0.529722   -1.866650
H      -2.899651   -1.738045   -1.617677
