15

O       0.036446    1.387941   -0.032606
C       0.033325    0.015156    0.041671
C      -0.397244   -0.738834    1.268818
O      -1.079220   -0.006975    2.252931
C      -2.426825    0.062110    1.817953
O      -2.376239    0.122941    0.398750
C      -1.316855   -0.728208    0.036240
C      -1.602296   -1.904958   -0.806415
O      -2.692683   -2.228555   -1.202051
H      -0.867324    1.682821    0.146799
H       0.834244   -0.434800   -0.539359
H       0.117304   -1.632364    1.608803
H      -2.986041   -0.830099    2.137946
H      -2.884608    0.976342    2.201040
H      -0.683973   -2.484424   -1.060262
