17

O       0.406934    1.354736   -0.428388
C       0.059190    0.072016   -0.029665
C       0.287335   -1.001116   -1.098668
O      -1.006239   -1.598798   -0.847657
C      -1.388073   -0.558906    0.072003
C      -1.081143   -0.921756    1.524047
C      -1.982233   -0.903171    2.680006
O      -1.465394   -2.127677    2.144466
C       0.362282   -0.395730    1.425640
H       0.295163    1.957084    0.314214
H       0.347500   -0.578869   -2.109135
H       1.114147   -1.702349   -0.938350
H      -2.340217   -0.087765   -0.185958
H      -1.595429   -0.618911    3.658338
H      -3.050372   -0.744881    2.535379
H       1.147517   -1.149619    1.525199
H       0.581081    0.429738    2.111844
