19

C       0.009715    1.401389   -0.079609
C       0.006156   -0.134621    0.074389
C       0.741291   -0.543671    1.269133
C       1.344423   -0.875726    2.265206
C       2.021694   -1.246254    3.385870
C       2.624115   -1.576065    4.379404
C      -1.414396   -0.693102    0.086179
C      -2.124217   -0.953427   -1.217919
C      -1.682382   -2.107308   -0.349582
H       1.030576    1.789657   -0.120554
H      -0.512201    1.683746   -0.998399
H      -0.499358    1.873125    0.765993
H       0.522353   -0.563730   -0.797322
H       3.153111   -1.863946    5.253407
H      -2.021225   -0.315412    0.904510
H      -3.182779   -0.728054   -1.283119
H      -1.576437   -0.774639   -2.137921
H      -0.838492   -2.700643   -0.686136
H      -2.438118   -2.675001    0.181156
