18

C       0.065724    1.509790   -0.138741
O       1.495261    1.486154    0.183403
C       1.254675    0.255353    0.936545
C       1.875824   -1.123063    0.863437
C       0.635007   -2.001339    0.924254
C      -0.660634   -1.136827    0.883374
C       0.015581   -0.011651    0.098181
C       0.633239   -0.809098   -1.075353
N       1.398444   -1.835439   -0.335680
H      -0.492069    2.113645    0.587918
H      -0.116665    1.877158   -1.152416
H       1.050878    0.525750    1.982177
H       2.826089   -1.419417    1.289226
H       0.647002   -2.983393    1.381373
H      -1.474285   -1.657921    0.370520
H      -0.995588   -0.843281    1.881464
H      -0.124527   -1.282568   -1.707937
H       1.309274   -0.213682   -1.691473
