12

O      -0.150072   -0.021959    0.001281
C      -0.041752    1.175359    0.010094
N       1.154915    1.868919    0.002827
C       1.430006    3.320886    0.011126
C       2.945472    2.981194   -0.008508
C       2.523729    1.499460   -0.015370
O       3.070125    0.441575   -0.029915
H      -0.904416    1.873055    0.024542
H       1.057061    3.839609   -0.875319
H       1.077076    3.825578    0.913717
H       3.487533    3.290707   -0.903417
H       3.507552    3.276801    0.878716
