19

C      -0.019829    1.588763    0.008801
C      -0.038519    0.080242    0.265853
C      -1.362684   -0.583155   -0.142463
O      -1.619385   -0.442292   -1.542509
C      -1.371748   -2.057595    0.141908
C      -1.016117   -2.810455    1.246864
C      -1.291548   -4.142482    0.872405
N      -1.776347   -4.223235   -0.364363
N      -1.819535   -2.943762   -0.778720
H       0.926247    2.030339    0.333860
H      -0.130716    1.812109   -1.057745
H      -0.826091    2.098455    0.549653
H       0.772339   -0.410613   -0.283243
H       0.130735   -0.119196    1.330320
H      -2.178828   -0.105526    0.425883
H      -1.903765    0.460648   -1.706253
H      -0.623878   -2.452164    2.184760
H      -1.153794   -5.043099    1.452895
H      -2.128167   -2.710894   -1.707585
