21

C       0.070481    1.325099    0.262083
O       0.013759   -0.013555   -0.200467
C      -1.251427   -0.559206   -0.133109
C      -1.824153   -1.074062    1.157044
C      -1.618222   -2.029648   -0.003820
C      -2.701170   -1.863096   -1.094321
C      -4.153942   -1.460791   -0.690158
C      -3.774172    0.050565   -0.836391
C      -2.324326   -0.357641   -1.234196
H       1.109660    1.650577    0.175566
H      -0.561841    1.990859   -0.342659
H      -0.247537    1.400949    1.311447
H      -1.078928   -1.184503    1.938997
H      -2.812912   -0.811866    1.520729
H      -0.974696   -2.894585    0.104506
H      -2.591254   -2.544740   -1.937907
H      -4.904745   -1.787334   -1.413594
H      -4.479419   -1.783929    0.301957
H      -4.315508    0.554329   -1.640894
H      -3.865484    0.660768    0.066422
H      -1.913553    0.031824   -2.166071
