16

C       0.100804    1.452199    0.131518
N      -0.003454    0.009058    0.268106
C      -1.050708   -0.606096   -0.042504
C      -1.198016   -2.095717    0.125778
O      -1.917847   -2.648167   -0.960209
C      -3.225093   -2.134585   -1.005022
C      -3.298815   -0.614346   -0.968119
O      -4.271409    0.009382   -1.271196
O      -2.173782    0.049095   -0.550499
H       0.916020    1.675900   -0.564975
H      -0.811951    1.944377   -0.216554
H       0.389974    1.871242    1.100980
H      -0.206953   -2.547019    0.142392
H      -1.704163   -2.318525    1.081000
H      -3.688393   -2.467033   -1.935916
H      -3.839840   -2.510179   -0.168704
