12

C       0.005400    1.422647    0.026295
N      -0.025745   -0.030022    0.046078
N      -0.211083   -0.759424   -1.057660
N      -0.182799   -2.009577   -0.678816
C       0.020403   -1.969242    0.648733
N       0.124670   -0.745229    1.143879
N       0.119448   -3.161253    1.482525
O       0.007349   -4.232221    0.912210
O       0.305460   -2.978544    2.674532
H       0.972224    1.770709    0.393518
H      -0.144497    1.731966   -1.006883
H      -0.791540    1.812176    0.661825
