21

C       0.137438    1.607857   -0.137010
C       0.059941    0.098713    0.043014
C       0.860113   -0.806140   -0.939719
C       1.377066   -1.654566    0.270936
C       2.850738   -1.621463    0.545048
C       3.170498   -0.680548    1.434575
C       1.968010    0.082698    1.941054
C       0.759920   -0.615378    1.252923
O      -0.122972   -1.208532    2.186149
H       1.173471    1.955248   -0.214862
H      -0.376500    1.913434   -1.055225
H      -0.334028    2.142948    0.695885
H      -0.988233   -0.217047    0.064842
H       0.268059   -1.339229   -1.686831
H       1.668440   -0.274200   -1.449170
H       0.923336   -2.646705    0.334250
H       3.559829   -2.274795    0.047454
H       4.176823   -0.461500    1.776223
H       1.867071    0.007213    3.031762
H       2.038617    1.152186    1.707467
H      -0.490141   -0.508762    2.737593
