16

O       0.065826    1.406352    0.021654
C       0.021823    0.001090   -0.003667
C      -1.374022   -0.598555   -0.136310
C      -1.940395   -0.788609   -1.500657
C      -0.820606   -0.833892   -2.555781
O       0.211651    0.167503   -2.392904
C       0.715025   -0.585472   -1.241636
C      -0.125566   -1.831177   -1.628492
N      -1.344157   -1.954653   -0.715827
H      -0.092186    1.678677   -0.894432
H       0.487739   -0.355181    0.921857
H      -2.078435   -0.468681    0.678984
H      -3.005076   -0.729913   -1.700365
H      -1.106417   -1.000408   -3.593817
H       1.804906   -0.610425   -1.216869
H       0.337830   -2.768818   -1.920622
