19

C       0.764420    0.520041   -0.365833
C       0.287675   -0.651264    0.469454
C       1.162739   -1.845554    0.624712
N       0.950457   -0.920327    1.752687
C      -1.207398   -0.841799    0.443985
N      -1.816227   -1.849279    1.292483
C      -2.155871   -0.434861    1.544967
C      -1.706372    0.130170    2.853821
O      -2.147479    1.164971    3.294826
H       1.857046    0.581704   -0.363603
H       0.437788    0.426582   -1.407608
H       0.367926    1.464930    0.022816
H       0.706684   -2.821103    0.761290
H       2.126988   -1.845155    0.122994
H       1.753407   -0.304241    1.856494
H      -1.623210   -0.716351   -0.556756
H      -2.579868   -2.320513    0.816663
H      -3.122145   -0.053697    1.220200
H      -0.950791   -0.477488    3.382989
