20

C       0.637553    1.354112   -0.093012
C      -0.138209    0.045372   -0.066387
O      -1.533308    0.257112   -0.132046
C       0.436380   -1.058899   -1.028313
C       1.115238   -1.685735    0.187483
C       1.850221   -2.943745    0.394023
N       2.557911   -1.641843    0.460472
C       0.230528   -0.878825    1.144781
O       0.860179   -0.344566    2.269124
H       1.715569    1.184082   -0.020548
H       0.448355    1.892891   -1.030179
H       0.337118    1.984970    0.747167
H      -1.713580    0.881352   -0.843203
H      -0.367689   -1.681487   -1.429758
H       1.084904   -0.726997   -1.845250
H       1.777326   -3.469323    1.342477
H       2.035024   -3.581842   -0.466543
H       3.083091   -1.482234   -0.395664
H      -0.669277   -1.423717    1.453040
H       1.810561   -0.444254    2.100100
