19

O       0.015621    1.461272   -0.055269
C       0.041740    0.041298    0.029903
C      -0.017025   -0.658237    1.423108
C      -1.498836   -0.169782    1.541802
O      -1.816315    1.146914    1.859444
C      -1.357835   -0.645027    0.045355
C      -2.395734   -0.627043   -1.041156
C      -0.624731   -1.871579    0.649822
O       0.168519   -2.600341   -0.255987
H       0.916728    1.786760    0.034431
H       0.761909   -0.369232   -0.680537
H       0.749321   -0.680885    2.199795
H      -2.143828   -0.805449    2.158055
H      -1.258549    1.707918    1.301038
H      -2.705294    0.400049   -1.259590
H      -2.008118   -1.071066   -1.964046
H      -3.286356   -1.189640   -0.741336
H      -1.256007   -2.534931    1.254601
H       0.709334   -3.216152    0.247819
