18

O      -0.114037    0.027469   -0.064582
C       0.043257    1.215120   -0.212440
C       1.309590    1.918388    0.062485
C       1.368448    3.371674    0.376208
N       1.837816    2.968083   -0.947185
C       3.185241    2.357797   -0.729916
C       4.146627    2.238225   -1.860135
C       4.440028    3.171575   -0.697880
C       2.677569    1.260754    0.210399
H      -0.771045    1.875852   -0.585858
H       0.436758    3.929608    0.346963
H       2.086777    3.710533    1.119724
H       4.723322    1.323590   -1.950251
H       3.855064    2.689979   -2.802062
H       4.352963    4.238314   -0.876156
H       5.215750    2.892485    0.007818
H       3.088364    1.222338    1.222910
H       2.703065    0.261887   -0.228703
