20

C       0.164002    1.517090   -0.045310
O      -0.281170    0.189324   -0.223000
C       0.499162   -0.538236   -1.130588
C       1.894649   -1.107843   -0.678871
C       1.416900   -2.525415   -1.105416
C       0.707458   -3.386633   -0.047006
C      -0.120523   -2.613539    0.895733
N      -0.675638   -2.867946   -0.448764
C       0.014713   -1.977649   -1.464253
H       1.181894    1.559428    0.369718
H       0.155544    2.073608   -0.995488
H      -0.522542    1.998889    0.654554
H       0.609015    0.032055   -2.067285
H       2.738151   -0.721835   -1.255941
H       2.117155   -0.995487    0.385342
H       2.023171   -3.074796   -1.823262
H       0.883720   -4.450358    0.084477
H      -0.647235   -3.186661    1.654205
H       0.126438   -1.602637    1.192729
H      -0.456352   -2.114529   -2.437572
