16

C       0.088741    1.557618    0.009391
C       0.000749    0.034087    0.002287
C      -1.475841   -0.510027    0.013444
C      -2.178866   -0.076481    1.232492
C      -2.727609    0.285417    2.236082
C      -2.201937   -0.063447   -1.187235
C      -2.769657    0.309236   -2.176216
C      -1.406897   -1.991717    0.004787
N      -1.316253   -3.142730   -0.002073
H       1.137949    1.865552    0.000983
H      -0.398867    1.986434   -0.870166
H      -0.381954    1.977200    0.902508
H       0.483946   -0.380124   -0.887360
H       0.500701   -0.389343    0.878231
H      -3.226560    0.598536    3.120444
H      -3.285392    0.631731   -3.047483
