21

C      -0.028339    1.545891   -0.005253
C      -0.002324    0.019496    0.007151
C       0.673994   -0.610711   -1.245627
C       0.197889   -2.084368   -1.244698
C      -1.174360   -2.038593   -0.566617
C      -1.277892   -1.832932    0.954951
C      -0.016491   -1.621418    1.721844
C       0.670910   -0.585984    1.236645
C      -1.397548   -0.665430    0.003707
H       0.986196    1.959459   -0.019570
H      -0.552565    1.921769   -0.891297
H      -0.535335    1.939578    0.881520
H       0.305331   -0.097065   -2.142790
H       1.765320   -0.512634   -1.235003
H       0.119645   -2.487130   -2.258338
H       0.900572   -2.721994   -0.698540
H      -1.997541   -2.577025   -1.024126
H      -2.149759   -2.254044    1.444796
H       0.294845   -2.260587    2.540379
H       1.652235   -0.262344    1.568199
H      -2.307273   -0.091294   -0.129370
