18

C      -0.073841   -1.235966   -0.096627
C      -0.030137   -0.035557   -0.038403
C       0.011356    1.416189    0.033025
C      -0.436421    1.994972    1.385471
C       0.772913    2.111264    2.245275
C       1.964948    1.609202    1.438289
C       1.433608    2.055438    0.060356
C       1.048049    3.511803    0.371981
N       0.205551    3.315528    1.579145
H      -0.112638   -2.295720   -0.150343
H      -0.581379    1.836673   -0.788561
H      -1.443325    1.859122    1.759033
H       0.737688    2.086055    3.327144
H       2.903159    2.103662    1.707711
H       2.096613    0.527042    1.514198
H       2.062679    1.864972   -0.806547
H       1.906150    4.146048    0.613074
H       0.463352    3.993083   -0.417851
