16

C      -0.037905    1.445988    0.067495
C      -0.023121   -0.008297    0.018784
C      -0.017382   -1.211846   -0.059285
C      -0.035750   -2.642906   -0.071121
C      -0.393166   -3.349080    1.217295
O      -0.655813   -2.633584    2.362699
C      -1.389610   -3.390996    0.059806
C      -2.604113   -2.639031    0.150348
N      -3.586893   -2.034053    0.230605
H       0.662916    1.830015    0.816382
H       0.241942    1.870874   -0.902337
H      -1.037207    1.817174    0.317956
H       0.684876   -3.130889   -0.720120
H       0.111657   -4.284915    1.434253
H      -0.663152   -1.691576    2.139943
H      -1.469155   -4.321425   -0.492290
