20

C      -0.012897    1.462011    0.061632
C      -0.021415   -0.053305   -0.003573
C      -1.279663   -0.653294   -0.603976
C      -1.090134   -2.134474   -0.966062
C       0.073326   -2.759034   -0.234649
C       0.686614   -2.253140    1.015709
C       0.670206   -0.722386    1.162542
C       1.348839   -0.666649   -0.186352
N       1.436845   -2.179026   -0.292843
H       0.901047    1.840399    0.530996
H      -0.080951    1.897141   -0.941832
H      -0.864641    1.831285    0.644903
H      -2.095867   -0.533783    0.119714
H      -1.572134   -0.082590   -1.492566
H      -1.999530   -2.706871   -0.754857
H      -0.899668   -2.245575   -2.040615
H       0.139803   -3.839242   -0.354708
H       1.030092   -2.910627    1.808976
H       0.915783   -0.205355    2.081231
H       2.209115   -0.102480   -0.526155
