19

C       0.001230    1.507053    0.160183
C       0.037319    0.019447   -0.024505
C      -0.891238   -0.956397    0.730816
O      -1.017506   -2.157828   -0.032621
C       0.408204   -2.018042   -0.306983
C       0.584064   -1.053570    0.919931
C       0.486859   -0.784205   -1.254657
C      -0.351067   -0.785909   -2.524770
O       0.150195   -1.698576   -3.495688
H       0.976974    1.960119   -0.048835
H      -0.734209    1.975194   -0.503789
H      -0.270222    1.770303    1.188640
H      -1.699689   -0.659520    1.386345
H       0.908775   -2.963846   -0.504669
H       1.240095   -1.022972    1.778839
H       1.535645   -0.567343   -1.485344
H      -1.398039   -1.000328   -2.274415
H      -0.315466    0.202846   -2.996104
H      -0.061719   -2.586512   -3.191755
