15

C      -0.064333    1.447102    0.046678
C       0.004830   -0.006693    0.027668
C       0.051362   -1.209175    0.000402
C       0.130761   -2.665367   -0.007218
C       0.594415   -3.270098    1.358979
O      -0.468592   -4.181068    1.719808
C      -1.387008   -4.076138    0.731858
N      -1.192243   -3.303380   -0.251834
H       0.632470    1.888777   -0.674072
H      -1.071039    1.795399   -0.208789
H       0.183200    1.845987    1.036523
H       0.804360   -2.979746   -0.813803
H       1.523518   -3.839409    1.282716
H       0.687332   -2.515796    2.142664
H      -2.262379   -4.701214    0.871022
