21

C      -0.326452    1.343375    0.010284
O      -0.251976   -0.050484   -0.170240
C       0.845363   -0.437221   -0.970827
C       0.837891   -1.939321   -1.062772
O       0.054574   -2.581551   -2.088590
C       1.481239   -2.728563   -2.123005
C       2.157707   -2.162580   -3.372275
C       2.407822   -3.275517   -4.396268
O       1.386463   -1.117414   -3.938487
H       0.569535    1.738712    0.515906
H      -0.439649    1.874988   -0.947558
H      -1.201274    1.545843    0.632727
H       0.804645    0.017762   -1.967515
H       1.794625   -0.121021   -0.499932
H       0.725519   -2.419568   -0.089530
H       1.830876   -3.724670   -1.845292
H       3.120571   -1.720031   -3.084748
H       1.466971   -3.766407   -4.667932
H       2.848842   -2.851054   -5.301286
H       3.089581   -4.035463   -3.999132
H       0.463290   -1.373477   -3.799592
