16

C       0.046711    1.502718   -0.162471
N       0.018037    0.053648    0.018524
C      -1.040018   -0.560991    0.927032
C      -0.119569   -1.807975    0.984527
C       0.766219   -0.548066    1.205274
C      -0.319224   -0.023766    2.197227
C       2.201869   -0.471818    1.333166
N       3.350184   -0.399072    1.446146
H       1.025151    1.776913   -0.568432
H      -0.708870    1.760483   -0.911119
H      -0.136211    2.117477    0.730764
H      -2.099147   -0.518959    0.676867
H      -0.234146   -2.475664    1.838439
H       0.042063   -2.320733    0.037520
H      -0.340941    1.048817    2.379976
H      -0.446846   -0.584155    3.126107
