17

C      -0.062942    1.552433   -0.052605
C      -0.032601    0.016052   -0.041588
C       0.781905   -0.541039    1.160414
C       2.173540   -0.123140    1.150745
C       3.332573    0.225119    1.126936
C       4.636105    0.615094    1.104100
C       5.792662    0.961514    1.083955
C      -1.451544   -0.514031    0.049453
O      -1.997777   -1.183312   -0.786713
H       0.954584    1.951182   -0.064651
H      -0.591635    1.925792   -0.933956
H      -0.567961    1.943451    0.838370
H       0.399741   -0.361332   -0.972538
H       0.309189   -0.217318    2.098648
H       0.733676   -1.637683    1.153438
H       6.809902    1.265126    1.066063
H      -1.983004   -0.217387    0.986956
