16

C      -0.127113    1.321765    0.267270
N       0.034651   -0.113039    0.130394
C       0.568703   -0.529007   -0.924090
O       0.734444   -1.883226   -1.080590
C       1.326352   -2.313070   -2.254088
O       1.703792   -1.604424   -3.140184
N       1.381146   -3.688476   -2.175473
C       1.892271   -4.582884   -3.114165
N       2.399634   -4.239237   -4.220534
H       0.395270    1.658757    1.169133
H       0.246596    1.900141   -0.591381
H      -1.188490    1.552771    0.408434
H       0.936042    0.054998   -1.770780
H       1.001138   -4.078562   -1.327486
H       1.785695   -5.610566   -2.746385
H       2.701572   -5.066234   -4.732663
