19

C      -0.018660    1.369970   -0.106265
C       1.387550    1.965933    0.006028
C       2.100986    1.327022    1.215426
O       2.084836   -0.093318    1.029713
C       0.762505   -0.582048    1.027358
C       0.098746   -0.367962    2.406072
C       0.535882    0.908534    3.073282
C       1.458249    1.697863    2.528954
O       0.015766   -0.054349   -0.050817
H      -0.665850    1.770481    0.687162
H      -0.476430    1.618593   -1.067568
H       1.963323    1.733224   -0.895593
H       1.331028    3.055172    0.108621
H       3.159008    1.606773    1.220145
H       0.839505   -1.650106    0.809025
H      -0.990074   -0.390687    2.276698
H       0.344211   -1.221994    3.051768
H       0.080142    1.155975    4.028738
H       1.763945    2.628884    2.997506
