20

C       0.181741    1.922477    0.448128
N      -0.202861    0.531949    0.678938
C       0.533575   -0.508423   -0.028190
C       0.681327   -0.345892    1.449524
C       2.005754    0.149935    2.040914
O       2.963804    0.608851    1.099403
C      -0.078878   -1.213754    2.419371
C      -0.578347   -2.556010    2.102949
O       0.592659   -2.384413    2.903405
H       1.256280    2.069362    0.283681
H      -0.364661    2.288608   -0.426741
H      -0.128140    2.524995    1.308435
H      -0.060711   -1.315596   -0.448076
H       1.378375   -0.195041   -0.638702
H       1.813703    1.000999    2.705043
H       2.414389   -0.659895    2.658400
H       3.313131   -0.161342    0.639899
H      -0.602179   -0.654591    3.197608
H      -1.451709   -2.941091    2.627690
H      -0.407659   -2.979007    1.115431
