22

C      -0.726324    0.975547    0.096525
C       0.220872   -0.206660   -0.189683
C       1.290924    0.151438   -1.224130
C       0.830508   -0.704242    1.090342
N       2.060888   -0.691589    1.407987
C       2.154478   -1.277057    2.750608
C       0.686924   -1.565427    3.173708
C       0.188572   -0.746271    4.354152
O      -0.067282   -1.210794    1.985112
H      -0.165011    1.834778    0.479104
H      -1.232386    1.285076   -0.822699
H      -1.483850    0.703888    0.835254
H      -0.392335   -1.032683   -0.575514
H       1.925056    0.964026   -0.859471
H       1.940532   -0.701283   -1.434756
H       0.818416    0.471092   -2.158104
H       2.769120   -2.183581    2.720633
H       2.646123   -0.576403    3.435996
H       0.511389   -2.631238    3.351886
H       0.359762    0.320983    4.180077
H      -0.880998   -0.904204    4.518135
H       0.723448   -1.035657    5.264910
