21

C       0.018303    1.470999   -0.196410
C      -0.080952   -0.033658    0.036908
O       0.723024   -0.460649    1.135149
C      -1.540240   -0.549306    0.198932
C      -2.242509    0.043843    1.428340
O      -2.270610   -0.179714   -0.987225
C      -2.766957   -1.334650   -1.659559
C      -2.269395   -2.499470   -0.851116
C      -1.578659   -2.058890    0.192417
H       1.053276    1.748159   -0.415751
H      -0.616651    1.767667   -1.034168
H      -0.302318    2.035544    0.687639
H       0.329474   -0.553535   -0.836292
H       0.607678    0.175212    1.848623
H      -2.343413    1.128599    1.335646
H      -3.243720   -0.383043    1.527153
H      -1.686199   -0.183268    2.343469
H      -3.866981   -1.297153   -1.713209
H      -2.395879   -1.350794   -2.696128
H      -2.465546   -3.530972   -1.115887
H      -1.082745   -2.647701    0.951729
