20

C       0.079205    1.404787   -0.365655
C       0.059797   -0.055624    0.014176
N       0.177358   -0.569177    1.171795
O      -0.111218   -0.813445   -1.084751
C      -0.201256   -2.255006   -0.900360
C      -0.724318   -2.866837   -2.215380
C       0.510449   -3.474131   -2.928069
C       1.549318   -3.515734   -1.834798
C       1.164619   -2.872669   -0.733622
H       0.882399    1.594670   -1.084095
H      -0.861125    1.680100   -0.852942
H       0.226981    2.036807    0.511546
H       0.282012    0.159406    1.873885
H      -0.856970   -2.424727   -0.043491
H      -1.443508   -3.656141   -1.979389
H      -1.244409   -2.114343   -2.811551
H       0.299764   -4.466314   -3.343188
H       0.854643   -2.858421   -3.769776
H       2.507319   -4.008720   -1.964564
H       1.737051   -2.741926    0.174824
