19

O       0.455811    1.309209    0.092148
C       0.062485   -0.045995    0.017470
C       0.624618   -0.610727   -1.299127
C       0.067543    0.026829   -2.484881
C      -0.406590    0.534856   -3.464984
C       0.582612   -0.835593    1.232907
C      -0.126189   -0.435439    2.507328
C       0.590529   -0.033123    3.723600
O      -0.022755    0.952277    2.886108
H       0.316806    1.603373    1.001845
H      -1.037473   -0.132365   -0.017629
H       1.714546   -0.484380   -1.284755
H       0.425833   -1.689166   -1.337094
H      -0.817936    0.996487   -4.327826
H       0.435908   -1.911722    1.079662
H       1.659598   -0.653633    1.324288
H      -1.137338   -0.827739    2.623655
H       0.123254   -0.157971    4.698567
H       1.679255   -0.032730    3.724262
