17

C      -0.036365    1.540374    0.013448
C       0.021598    0.035064   -0.107965
N      -0.148518   -0.497224   -1.246503
C      -0.094360   -1.927684   -1.455199
C       0.826063   -2.708582   -0.529454
O       0.276394   -2.895751    0.781719
C       0.179753   -1.873145    1.641930
O       0.034748   -2.062316    2.821485
N       0.271311   -0.568918    1.140674
H       0.894639    1.935941    0.435214
H      -0.194753    1.969031   -0.974281
H      -0.855265    1.847041    0.674620
H      -1.105589   -2.352381   -1.386144
H       0.238179   -2.098999   -2.486898
H       0.968524   -3.723716   -0.906326
H       1.807336   -2.225527   -0.454410
H       0.268308    0.073255    1.920444
