20

C      -0.028062    1.449009    0.046541
C       0.050090   -0.055159   -0.017771
C       0.049811   -0.738255   -1.382119
C      -0.763073   -2.035808   -1.132097
O      -0.251872   -3.201927   -1.752469
C      -0.686238   -2.185744    0.383441
C       0.774149   -2.277344    0.892051
C       0.667387   -0.777762    1.127704
N      -0.840543   -0.776787    0.940333
H       0.865477    1.905870   -0.393510
H      -0.902063    1.815482   -0.502795
H      -0.114176    1.790171    1.081759
H      -0.412922   -0.098101   -2.139864
H       1.058289   -0.988840   -1.727896
H      -1.813305   -1.872620   -1.417757
H      -0.352475   -3.106659   -2.704161
H      -1.401883   -2.893793    0.799557
H       0.841735   -2.826430    1.833157
H       1.532641   -2.653120    0.200295
H       1.129001   -0.234094    1.948193
