14

N      -0.179635    1.267876   -0.412881
C      -0.137605   -0.072584   -0.153758
C      -1.110210   -1.040809   -0.046037
C      -2.599813   -0.916786   -0.213780
C      -2.957903    0.072974   -1.233332
N      -3.179245    0.893861   -2.016877
C      -0.361028   -2.193857    0.300352
N       0.923655   -1.971587    0.401933
O       1.065550   -0.596891    0.102551
H       0.704882    1.668538   -0.690232
H      -0.962237    1.579490   -0.972866
H      -3.028097   -1.882244   -0.505349
H      -3.101918   -0.627421    0.719977
H      -0.729859   -3.195027    0.482501
