18

C       0.036526    1.478305   -0.108569
C       1.304623    0.701232    0.044409
C       1.965887    0.708510    1.414134
O       1.062724    1.376090    2.347254
C       0.500679    0.090674    2.627667
C       1.756572   -0.668204    2.177679
C       0.880715   -1.707618    1.454274
C      -0.222337   -0.609069    1.380063
N      -0.001793    0.026123    0.075640
H      -0.243882    2.136638    0.703611
H      -0.271983    1.791317   -1.102855
H       1.939513    0.490863   -0.814147
H       2.963827    1.152891    1.423609
H       0.009227    0.015332    3.599761
H       2.566478   -0.953566    2.847994
H       1.198708   -2.122309    0.495649
H       0.622749   -2.519274    2.140499
H      -1.270498   -0.891307    1.490583
