19

C      -0.030618    1.513442    0.082716
N      -0.005058    0.068090    0.144085
C      -1.253172   -0.664104    0.457685
C      -0.432560   -1.608575    1.336587
C      -0.841470   -2.476630    2.480337
C      -0.292909   -3.091465    1.210279
C       0.702393   -0.567595    1.273595
C       2.060492   -1.033753    0.989044
N       3.127824   -1.428847    0.787079
H       0.983227    1.893615   -0.076973
H      -0.645038    1.830555   -0.765514
H      -0.437975    1.982183    0.998197
H      -1.976965   -0.064920    1.034660
H      -1.757171   -1.090051   -0.416517
H      -0.212660   -2.487973    3.364957
H      -1.902337   -2.577156    2.686542
H      -0.981190   -3.607625    0.548957
H       0.707807   -3.510470    1.234536
H       0.732579    0.059763    2.180870
