19

C      -0.035156    1.557918    0.073139
C       0.033534    0.030462    0.192094
C      -1.339117   -0.621766    0.067289
C      -2.046434   -0.793283   -1.333830
C      -1.065637   -1.979375   -1.626309
C      -1.472647   -2.188269   -0.118767
O      -1.042901   -3.167102    0.740241
C      -2.882670   -1.858888   -0.612170
O      -4.003567   -2.249703   -0.481999
H       0.951258    2.007858    0.220910
H      -0.398213    1.863811   -0.913674
H      -0.711642    1.984684    0.821624
H       0.740552   -0.360082   -0.545288
H       0.440930   -0.242825    1.173443
H      -2.001841   -0.215760    0.840142
H      -2.365893   -0.014702   -2.018009
H      -1.398709   -2.734509   -2.340642
H      -0.027645   -1.701944   -1.796753
H      -1.810724   -3.679404    1.020086
