19

O       0.187649    1.286856   -0.344340
C       0.063426   -0.078629    0.033143
C       0.805489   -0.387910    1.361427
C       0.018010   -0.098422    2.621557
C      -1.052119   -0.805225    2.990752
C      -1.556694   -1.950359    2.180041
O      -2.860183   -1.833772    1.587242
C      -1.716561   -1.812904    0.722271
C      -1.422914   -0.485809    0.049658
H      -0.329814    1.811122    0.277059
H       0.588124   -0.621996   -0.760643
H       1.088145   -1.447129    1.349426
H       1.737169    0.183798    1.346648
H       0.354134    0.721947    3.251390
H      -1.580880   -0.580343    3.913893
H      -1.366063   -2.945117    2.589561
H      -1.610523   -2.709225    0.110164
H      -1.980597    0.274434    0.606309
H      -1.808231   -0.475473   -0.974715
