15

C      -0.012961    1.583722    0.059194
C       0.048635    0.084973    0.044077
C      -0.858759   -0.831104    0.841785
O      -1.622912   -1.789227    0.179259
C       0.628849   -0.958209    1.019216
N       1.249821   -1.663156   -0.104309
C       0.677878   -0.782047   -1.046824
O       0.720331   -0.754911   -2.241641
H       0.975587    2.023422   -0.106156
H      -0.675145    1.943752   -0.735094
H      -0.397293    1.959266    1.012339
H      -1.372954   -0.313168    1.655166
H      -1.842444   -2.487838    0.805594
H       1.173082   -0.799671    1.942137
H       1.170920   -2.667751   -0.221156
