25

C       0.081326    1.591754    0.235841
C      -0.022991    0.087932    0.056017
C      -1.351351   -0.422873   -0.484503
C      -1.676200    0.031797   -1.916756
C      -2.969338   -0.556248   -2.441309
C      -4.290669    0.106258   -2.137321
C      -3.737830    0.127890   -3.542201
C       1.228013   -0.660344   -0.343696
C       0.692615   -0.779074    1.064896
H       1.047255    1.869668    0.669283
H      -0.015232    2.125362   -0.716112
H      -0.702997    1.963790    0.906289
H      -1.345132   -1.520469   -0.458614
H      -2.163591   -0.108554    0.185522
H      -1.743643    1.126427   -1.955845
H      -0.846289   -0.247246   -2.579991
H      -2.986639   -1.643973   -2.463268
H      -5.153418   -0.517812   -1.931599
H      -4.272247    1.034022   -1.573879
H      -3.351086    1.069348   -3.919304
H      -4.221253   -0.484116   -4.295881
H       1.125756   -1.518250   -1.000642
H       2.140770   -0.094114   -0.497548
H       1.242633   -0.290539    1.862652
H       0.229708   -1.716062    1.357168
