18

C      -0.047588    1.481878    0.092792
C      -0.078333   -0.003284   -0.017942
N      -1.085786   -0.754830    0.179309
C      -0.634747   -2.133092   -0.007953
C      -1.003920   -2.793938   -1.366789
O      -2.152220   -2.269735   -1.976628
C       0.397615   -2.390465   -1.933471
C       0.836278   -1.977583   -0.507812
O       1.119748   -0.577424   -0.354983
H       0.708929    1.790984    0.820897
H       0.226013    1.927540   -0.868851
H      -1.026838    1.846895    0.399766
H      -0.858515   -2.729363    0.880797
H      -1.077725   -3.884670   -1.243486
H      -2.309562   -2.759011   -2.790410
H       0.978544   -3.178909   -2.417822
H       0.336646   -1.524392   -2.596744
H       1.641699   -2.549063   -0.047063
