23

C       0.056104    1.327967   -0.160546
O       0.014540   -0.036237    0.183816
C      -1.284723   -0.599760    0.139869
C      -1.835160   -0.810232   -1.296334
C      -2.750833   -2.047326   -1.199599
C      -2.191510   -2.883845   -0.048978
C      -3.098199   -3.911503    0.584281
C      -0.698855   -3.104500   -0.062077
C      -1.284722   -1.980610    0.761976
H       1.084936    1.668351   -0.017405
H      -0.228237    1.506677   -1.208562
H      -0.607590    1.931064    0.480576
H      -1.972147    0.049959    0.709746
H      -2.359275    0.066439   -1.684709
H      -0.985733   -0.998463   -1.961095
H      -3.775556   -1.744342   -0.948784
H      -2.807222   -2.601473   -2.144006
H      -3.364042   -4.699467   -0.130783
H      -2.617863   -4.393788    1.441588
H      -4.032160   -3.456305    0.935487
H      -0.327600   -3.963010    0.487664
H      -0.116323   -2.864677   -0.945018
H      -1.236960   -2.052120    1.843165
