25

C       0.278011    1.465349    0.496762
C       0.038859    0.054974   -0.015593
C       0.808354   -0.361659   -1.249371
C       1.191550   -0.917396    0.101529
C      -1.362275   -0.520359    0.145167
C      -1.891936   -0.636526    1.588473
C      -3.397238   -0.942838    1.420698
C      -3.793025   -0.369089    0.024864
C      -2.500665    0.246330   -0.557248
H       1.316737    1.764164    0.325049
H      -0.359015    2.198119   -0.010362
H       0.090065    1.546841    1.572849
H       0.324969   -1.028658   -1.955885
H       1.470509    0.363662   -1.710736
H       2.113332   -0.568586    0.555452
H       0.966601   -1.959169    0.306023
H      -1.343974   -1.536177   -0.278004
H      -1.363847   -1.393823    2.175270
H      -1.759864    0.320760    2.106469
H      -3.571688   -2.023146    1.449308
H      -3.992482   -0.511175    2.230129
H      -4.158895   -1.171071   -0.624205
H      -4.598989    0.366882    0.092636
H      -2.442201    1.309956   -0.297536
H      -2.448303    0.179499   -1.647892
