17

C      -0.019431    1.162926    0.154199
N      -0.266051   -0.244228   -0.143230
C      -0.218657   -1.113456    1.022338
C      -1.472165   -0.970497    1.870159
O      -1.498626   -1.089886    3.065726
C       0.080072   -0.785768   -1.369774
N       0.460299   -1.998071   -1.502407
C      -0.166945    0.077548   -2.598102
O       0.260268   -0.229501   -3.680305
H       0.986248    1.315137    0.572947
H      -0.110348    1.783441   -0.736994
H      -0.748287    1.521506    0.887805
H      -0.162410   -2.147278    0.663907
H       0.666002   -0.932894    1.646979
H      -2.392364   -0.765199    1.275230
H       0.583520   -2.196623   -2.496519
H      -0.815960    0.965981   -2.469371
