19

C       0.012277    1.624381   -0.190286
C       0.064636    0.096534   -0.133848
C      -1.309611   -0.530660    0.174642
C      -1.294391   -2.019826    0.209204
C      -1.519102   -2.946184    1.188410
N      -1.932167   -2.766549    2.518022
C      -1.331755   -4.187760    0.516393
N      -1.016674   -4.028681   -0.745371
O      -0.997895   -2.661682   -0.950231
H       0.997107    2.045699   -0.412957
H      -0.680572    1.968502   -0.966046
H      -0.323047    2.047969    0.763358
H       0.425581   -0.303407   -1.087399
H       0.784454   -0.227613    0.627396
H      -1.678371   -0.161975    1.139748
H      -2.035988   -0.190966   -0.575850
H      -1.740101   -1.835080    2.863835
H      -1.511883   -3.438883    3.147317
H      -1.418267   -5.187600    0.919649
