17

O      -0.035240   -0.044699   -0.187250
C      -0.010623    1.144237   -0.005330
C       1.254900    1.981718    0.016488
C       1.200856    3.001882   -1.163187
C       0.817956    4.300844   -0.499685
C       0.882346    4.235769    0.825876
C       1.343616    2.870041    1.311719
C       0.595235    2.352744    2.455272
C      -0.018158    1.929799    3.398619
H      -0.948691    1.730356    0.120290
H       2.099739    1.295882   -0.059156
H       2.174997    3.077326   -1.662883
H       0.486591    2.696963   -1.938755
H       0.554650    5.186092   -1.067673
H       0.679023    5.041711    1.520273
H       2.399306    2.937467    1.613827
H      -0.560308    1.549491    4.228899
