20

C       0.042644    1.520248    0.037460
C      -0.062436    0.023944    0.052000
N       1.114135   -0.784840   -0.291182
C       0.499109   -0.987558    1.028543
C       1.335099   -0.819949    2.262966
C      -0.785310   -1.796356    0.908822
O      -0.842832   -3.174256    0.759538
C      -1.990248   -0.968027    1.282865
C      -1.342763   -0.784377   -0.078849
H       1.025163    1.843874    0.390505
H      -0.089566    1.909912   -0.978642
H      -0.727057    1.974203    0.670749
H       0.889053   -1.542326   -0.933778
H       2.046367    0.000983    2.140947
H       0.710071   -0.613695    3.138908
H       1.913836   -1.728278    2.468929
H      -0.908912   -3.572077    1.634294
H      -2.930785   -1.512162    1.274260
H      -1.927529   -0.182729    2.031997
H      -1.877932   -0.990550   -0.999242
