18

C       0.032768    1.525014    0.002885
C       0.027010    0.012891   -0.014810
N      -0.781455   -0.713933    0.982899
C       0.697521   -0.730148    1.110334
C       1.387833   -2.017348    0.800523
O       2.358805   -2.382708    1.425516
C       0.832933   -2.800104   -0.383580
C       0.403908   -1.912143   -1.525942
C       0.053827   -0.638642   -1.358451
H       0.905650    1.920181   -0.526886
H      -0.863141    1.919878   -0.490075
H       0.055968    1.910579    1.026878
H      -1.152375   -0.060125    1.670266
H       1.162293   -0.154497    1.905592
H       1.586870   -3.530131   -0.688767
H      -0.037008   -3.369521   -0.023068
H       0.373216   -2.361936   -2.514159
H      -0.253026   -0.032190   -2.206021
