15

C      -0.391956    1.405032    0.129627
C       0.062018   -0.015367   -0.047863
N       0.076277   -0.514562   -1.245614
C       0.264104   -1.829569   -1.553452
C       0.072390   -2.940443   -0.789158
C      -0.121542   -2.976483    0.655842
O      -0.572229   -3.925952    1.272536
C       0.508711   -1.834739    1.402590
N       0.542758   -0.589878    1.109454
H       0.445238    2.029331    0.458810
H      -0.797222    1.791854   -0.804756
H      -1.151254    1.457119    0.917486
H       0.486873   -1.986134   -2.607768
H       0.095014   -3.913238   -1.273016
H       0.986777   -2.143517    2.336231
