19

C      -0.378605    1.339145   -0.152782
N       0.047272   -0.041587    0.032705
C       1.443219   -0.367413   -0.217165
C       0.892557   -0.415429    1.169255
C       1.362383    0.560171    2.214316
C       0.531825    0.691059    3.514594
C       1.834941    0.271810    4.220065
O       2.491778    0.031797    2.956840
H       0.403507    2.093819    0.022487
H      -0.725970    1.456118   -1.184460
H      -1.221708    1.554082    0.511966
H       1.634798   -1.283479   -0.769628
H       2.125753    0.452082   -0.444000
H       0.641766   -1.390392    1.587314
H       1.621264    1.526325    1.763872
H       0.146324    1.685110    3.745183
H      -0.278116   -0.037329    3.592014
H       2.329516    1.068364    4.791132
H       1.793869   -0.632355    4.837922
