14

C      -0.120640    1.431863   -0.018509
C       0.059664   -0.058614    0.056110
O       0.265635   -0.670724    1.075793
C       0.001947   -0.881567   -1.268972
O       0.278109   -2.224818   -1.008605
C      -1.303629   -0.702210   -1.910898
C      -2.382443   -0.562683   -2.436743
C      -3.600982   -0.398530   -3.030570
N      -4.637271   -0.251149   -3.534129
H       0.610884    1.866176   -0.708816
H      -1.113059    1.669289   -0.414806
H      -0.001924    1.870259    0.972423
H       0.770647   -0.460339   -1.938918
H       0.311726   -2.288585   -0.037537
