20

C      -0.120134    1.469400   -0.021808
C      -0.011500   -0.020708   -0.096234
C       0.940910   -0.851739   -0.956717
C       0.115735   -2.075344   -0.469949
O      -0.058550   -3.212019   -1.243992
C       0.416341   -2.097364    1.038821
N      -0.326402   -0.800909    1.170897
C      -1.056451   -1.077497   -0.105790
C      -2.535797   -1.114927   -0.276855
H       0.793826    1.907562    0.395347
H      -0.279647    1.903390   -1.014968
H      -0.953224    1.760518    0.623688
H       0.772023   -0.657715   -2.019724
H       2.014913   -0.834368   -0.733293
H       0.806449   -3.544562   -1.508107
H      -0.138004   -2.873892    1.572615
H       1.461543   -2.082082    1.372461
H      -2.993464   -0.235691    0.187150
H      -2.808771   -1.126627   -1.337414
H      -2.967730   -2.006896    0.190037
