18

O      -0.082002    1.424251   -0.134031
C      -0.058882    0.022450   -0.008966
C      -1.468275   -0.593670   -0.057125
C      -1.429825   -2.123479   -0.084656
O      -2.759456   -2.592111   -0.307921
C      -2.923289   -3.932211   -0.354239
N      -4.076191   -4.416213   -0.510027
C      -2.340253   -0.094744    1.083980
O      -2.057574    0.849857    1.785307
H      -0.567570    1.745756    0.637431
H       0.533730   -0.361126   -0.846895
H       0.442804   -0.296495    0.919568
H      -1.964135   -0.265163   -0.982729
H      -0.766194   -2.462791   -0.891003
H      -1.042662   -2.523135    0.863239
H      -1.983693   -4.492364   -0.249670
H      -4.030066   -5.432715   -0.530774
H      -3.281852   -0.656640    1.243014
