18

C      -0.064713    1.494223   -0.032149
O       1.371517    1.514939    0.211798
C       1.492240    0.121938   -0.201170
C       2.180542   -0.881781    0.687005
N       1.529949   -1.196669    1.967483
C       1.445745   -2.172512    0.871402
C       0.054473   -2.398533    0.273303
C      -0.696100   -1.099441    0.071259
C       0.000363   -0.004474   -0.182760
H      -0.639093    1.879095    0.818150
H      -0.324221    2.065265   -0.934905
H       1.952643    0.073036   -1.200934
H       3.266707   -0.916652    0.643726
H       2.232195   -1.481469    2.644310
H       2.053181   -3.072147    0.947226
H       0.161339   -2.960603   -0.665329
H      -0.516031   -3.047198    0.949223
H      -1.768609   -1.080624    0.239543
