20

C      -0.539000    1.429512   -0.071157
C      -0.021542   -0.023401   -0.007800
C       0.707668   -0.423176   -1.308379
C       2.031650    0.256816   -1.525060
N       2.191092    1.190477   -2.364027
O       3.081838   -0.302410   -0.827530
C       3.236351    0.017095    0.552089
C       2.076652   -0.212573    1.482932
C       0.761727   -0.235419    1.263872
H       0.286586    2.133851   -0.206464
H      -1.230003    1.556091   -0.910597
H      -1.067249    1.696186    0.849324
H      -0.903742   -0.674451    0.052037
H       0.890084   -1.502725   -1.296009
H       0.064999   -0.186990   -2.159725
H       3.171226    1.484377   -2.366986
H       4.082260   -0.596256    0.878347
H       3.559051    1.068688    0.644709
H       2.409246   -0.326088    2.514319
H       0.132566   -0.370589    2.142804
