18

C      -0.222930    1.588823    0.016636
C       0.040430    0.073034   -0.015332
C       0.911857   -0.405271   -1.164630
C       1.881645   -1.233573   -0.761551
C       1.910848   -1.379268    0.723051
C       2.204343   -0.089049    1.463838
O       2.838158    1.001357    0.867625
C       0.767272   -0.476601    1.219212
H       0.707848    2.145690    0.143532
H      -0.710899    1.921277   -0.905964
H      -0.882861    1.844302    0.851595
H      -0.935764   -0.428442   -0.100547
H       0.730219   -0.101650   -2.190518
H       2.600314   -1.721170   -1.411303
H       2.166562   -2.331945    1.174173
H       2.551922   -0.199544    2.486405
H       2.783146    0.877429   -0.089269
H       0.170542   -0.757592    2.080150
