17

C      -0.130443    1.492298    0.032593
C       0.052643   -0.003986    0.037476
C      -1.010202   -0.848599   -0.663277
C      -1.812660   -1.710750    0.304378
O      -2.992837   -1.902826    0.206480
O      -1.124442   -2.272638    1.329355
C       0.307546   -2.125633    1.391780
C       0.756328   -0.702850    1.122690
O       1.396810   -0.472284   -0.138562
H       0.670991    1.980354    0.591955
H      -0.116791    1.875101   -0.993602
H      -1.091724    1.766008    0.479897
H      -1.724861   -0.243174   -1.221594
H      -0.506516   -1.512105   -1.375964
H       0.573252   -2.453933    2.397824
H       0.780676   -2.798142    0.667558
H       1.174320   -0.140278    1.954964
