13

N       0.014649    1.333517    0.110439
C      -0.057470   -0.019892    0.036378
N      -1.118200   -0.740723    0.022557
C      -0.740119   -2.162625   -0.009436
C       0.801064   -2.257232   -0.006545
C       1.230858   -0.799811   -0.013843
O       2.335958   -0.317796   -0.069170
H       0.910023    1.740778   -0.109541
H      -0.810467    1.874377   -0.087923
H      -1.187905   -2.670040    0.852549
H      -1.177266   -2.626695   -0.901071
H       1.204588   -2.752774    0.882114
H       1.214807   -2.775243   -0.876497
