20

C      -0.085503    1.501576    0.051502
C      -0.010734   -0.022128   -0.053061
C       0.862861   -0.565088   -1.188733
N       1.941179   -1.063144   -0.199644
C       1.055217   -0.644008    0.868597
O       1.232339   -0.689239    2.047307
C       1.172343   -2.004052   -1.100658
C       0.232415   -3.036315   -0.509241
C       2.078688   -2.563914   -2.180072
H       0.905181    1.955425   -0.051647
H      -0.733016    1.913942   -0.728518
H      -0.491206    1.792748    1.024042
H      -1.011203   -0.457024    0.032748
H       1.170782    0.033287   -2.040334
H      -0.434055   -2.634166    0.255207
H      -0.385104   -3.471225   -1.302239
H       0.810363   -3.846747   -0.053509
H       2.668926   -3.397495   -1.787320
H       1.483072   -2.933669   -3.021821
H       2.770447   -1.801835   -2.545331
