17

O       0.302816    1.299192   -0.354007
C       0.071719   -0.028101    0.044174
C       0.403927   -0.328881    1.524833
O      -0.342165   -1.490230    1.870926
C      -1.570110   -1.479775    1.161525
C      -2.687590   -0.571167    1.776750
C      -2.347635    0.467669    0.704768
O      -2.584505    1.636372    0.554242
C      -1.399861   -0.493042   -0.033418
H      -0.455135    1.835513   -0.085040
H       0.685430   -0.661632   -0.604838
H       1.460139   -0.543336    1.700559
H       0.120910    0.539604    2.141691
H      -1.856435   -2.512898    0.964772
H      -3.692298   -0.984548    1.637696
H      -2.570209   -0.264595    2.819529
H      -1.717965   -0.798445   -1.030677
