19

C       0.048014    1.372577   -0.215608
O      -0.014217    0.015519    0.178194
C      -1.301360   -0.561036    0.064551
C      -1.747828   -0.662579   -1.332346
C      -2.114064   -0.764451   -2.472787
C      -1.241900   -1.950853    0.733961
C      -0.835152   -1.838837    2.214831
C      -2.593634   -2.638542    0.653483
O      -2.754456   -3.803488    0.402830
H       1.077527    1.699603   -0.056016
H      -0.212337    1.500421   -1.274335
H      -0.625194    1.998120    0.390459
H      -2.031086    0.061782    0.614250
H      -2.440826   -0.857468   -3.479484
H      -0.519446   -2.567876    0.192709
H      -1.591850   -1.295370    2.793094
H      -0.721296   -2.833316    2.653731
H       0.109939   -1.300215    2.299208
H      -3.460565   -1.980710    0.903226
