21

C      -0.161551    1.542311   -0.106835
C       0.061046    0.033662   -0.053949
C       0.969630   -0.541820   -1.163902
C       1.193351   -2.000107   -0.673351
C       1.987812   -1.284781    0.453991
C       2.405729   -0.256698   -0.632500
C       0.857040   -0.527352    1.206083
C       1.346224    0.468516    2.145760
C       1.763862    1.279493    2.930324
H       0.779913    2.098128   -0.112689
H      -0.718551    1.809164   -1.011581
H      -0.736917    1.887668    0.757184
H      -0.917385   -0.458552   -0.090672
H       0.679553   -0.317157   -2.191400
H       0.315327   -2.592332   -0.395064
H       1.842152   -2.577149   -1.336136
H       2.715872   -1.802208    1.078478
H       3.178496   -0.648547   -1.297598
H       2.664727    0.755058   -0.311854
H       0.229837   -1.238927    1.755027
H       2.128970    1.993726    3.625848
