20

C       0.028088    1.547289   -0.060498
C       0.027363    0.016540    0.007607
C      -1.420717   -0.522430    0.061965
C       0.739516   -0.560433   -1.231001
O       0.916807   -1.965986   -1.103933
C       1.737607   -2.243159   -0.022658
O       1.211512   -1.770884    1.219066
C       0.748312   -0.477982    1.259531
N       0.815329    0.211663    2.316698
H       1.046949    1.945294   -0.081354
H      -0.494232    1.883857   -0.963006
H      -0.471601    1.970047    0.812161
H      -1.980983   -0.174071   -0.812516
H      -1.433676   -1.614605    0.064087
H      -1.927746   -0.163762    0.961332
H       0.140864   -0.398037   -2.131041
H       1.718780   -0.074442   -1.372910
H       1.816882   -3.326756    0.075951
H       2.736120   -1.794761   -0.164593
H       1.292481   -0.317534    3.049676
