21

C       0.046596    1.478662    0.234968
C       0.089678   -0.028008   -0.029778
C       0.701155   -0.457965   -1.396090
C      -0.114138    0.090496   -2.589068
C       2.081362    0.045032   -1.479457
N       3.172826    0.424139   -1.531126
C       0.712605   -1.992322   -1.462558
C       1.689814   -2.759213   -2.269381
N       1.730397   -2.806107   -0.793448
H       1.045981    1.921551    0.182352
H      -0.594856    2.003513   -0.478818
H      -0.350980    1.671418    1.235548
H       0.657558   -0.525321    0.763824
H      -0.923949   -0.444763    0.007009
H      -0.136452    1.182026   -2.593782
H       0.313089   -0.248265   -3.535790
H      -1.143134   -0.276418   -2.523695
H      -0.294084   -2.395342   -1.360553
H       1.386361   -3.684014   -2.751179
H       2.472275   -2.208863   -2.784551
H       2.492500   -2.215150   -0.464283
