18

O       0.451982    0.915263   -0.879619
C       0.080135   -0.218369   -0.142615
C       0.290159   -0.216989    1.408176
C      -1.218396   -0.515532    1.607750
C      -1.440957   -0.534247    0.052519
C      -2.362684    0.698635    0.218483
N      -2.061371    0.681922    1.653149
C      -2.452954    1.514759    2.642163
O      -3.157544    2.490887    2.481752
H       0.157195    1.702625   -0.409832
H       0.592463   -1.055665   -0.623015
H       0.956019   -1.009468    1.759199
H       0.625307    0.733079    1.833543
H      -1.509358   -1.319597    2.286219
H      -1.847828   -1.385358   -0.489502
H      -2.061056    1.611663   -0.306231
H      -3.420021    0.513590    0.003274
H      -2.056956    1.197111    3.629550
