19

O       0.055355    1.385539   -0.159688
C       0.010132   -0.006685   -0.068384
C       0.391056   -0.713744    1.268100
C      -0.813272   -1.687783    1.031132
C      -1.737172   -2.028729    2.154698
C      -2.915116   -1.420587    2.279850
C      -3.340156   -0.322965    1.340841
O      -2.252131    0.262042    0.642392
C      -1.390746   -0.672506    0.012494
H      -0.703220    1.704770    0.346656
H       0.587399   -0.412687   -0.904674
H       1.390614   -1.145908    1.345580
H       0.211329   -0.058422    2.123439
H      -0.474742   -2.595542    0.520183
H      -1.427651   -2.793121    2.863043
H      -3.612189   -1.685153    3.069990
H      -4.095111   -0.695829    0.625862
H      -3.810084    0.495726    1.897379
H      -1.852511   -1.062422   -0.904881
