18

C       0.124445    1.450259    0.368277
O       1.196976    2.205818   -0.165724
C       1.534875    2.046731   -1.528033
C       1.964106    0.605902   -1.869826
O       2.418060   -0.087246   -0.672390
C       1.178543   -0.794289   -0.617638
C      -0.095982    0.059766   -0.221436
N      -0.510813    0.152089   -1.670612
C       0.794626   -0.422416   -2.051435
H       0.333320    1.370693    1.441736
H      -0.824646    1.996885    0.246977
H       0.717849    2.345724   -2.201189
H       2.379442    2.725200   -1.679723
H       2.731517    0.597990   -2.649979
H       1.267569   -1.793608   -0.185979
H      -0.818357   -0.473315    0.405186
H      -1.256852   -0.507237   -1.870146
H       0.835928   -1.076827   -2.922142
