19

C      -0.135461    1.491928    0.204725
C       0.021003    0.003419   -0.013409
C       0.642401   -0.598737   -1.246905
C       1.286299    0.278994   -2.314660
C       2.783387    0.398793   -2.058353
O       3.076344    0.855666   -0.725299
C       2.588237    0.141023    0.328879
O       3.111555    0.246538    1.404739
C       1.374637   -0.696165    0.079655
H       0.721852    2.060040   -0.164149
H      -1.032390    1.866102   -0.301290
H      -0.236368    1.711684    1.272074
H      -0.788262   -0.584117    0.411693
H       0.192583   -1.518621   -1.605883
H       1.133453   -0.159950   -3.305698
H       0.835233    1.276226   -2.340186
H       3.277007   -0.568859   -2.215294
H       3.255520    1.131359   -2.717122
H       1.398514   -1.635859    0.618082
