17

C      -0.329117    1.125160    0.498374
O       0.530888    0.043851    0.160252
C       0.624524   -0.932359    1.086733
N       1.384343   -1.915307    0.879382
C       1.492653   -2.962951    1.882874
C       0.360976   -3.089767    2.877388
C       0.583713   -3.518892    4.263085
O       0.329939   -2.146687    3.959623
H       0.025067    1.657828    1.389192
H      -0.315783    1.806108   -0.353491
H      -1.357968    0.784445    0.668194
H       0.004013   -0.769540    1.976648
H       1.585576   -3.919531    1.351095
H       2.435324   -2.826311    2.429676
H      -0.620997   -3.283513    2.441008
H      -0.209404   -4.033247    4.803707
H       1.594739   -3.742818    4.601112
