21

C      -0.236853    1.512746   -0.304126
C      -0.195177   -0.028394   -0.276303
C       0.966926   -0.542066    0.596862
C      -1.475452   -0.581186    0.169602
C      -2.528686   -1.020932    0.557043
C      -3.793512   -1.572714    1.022512
C      -4.113894   -3.007853    0.552153
C      -3.679795   -3.392256   -0.845422
O      -4.718750   -3.756674    1.279465
H       0.710743    1.910807   -0.680867
H      -1.043995    1.873570   -0.946943
H      -0.400886    1.910996    0.701887
H      -0.019997   -0.375910   -1.304401
H       0.844276   -0.212757    1.633245
H       1.010567   -1.634303    0.592055
H       1.920859   -0.155452    0.224214
H      -3.857413   -1.576185    2.115175
H      -4.627056   -0.947212    0.667203
H      -2.586584   -3.404264   -0.899857
H      -4.078577   -4.375123   -1.097578
H      -4.017410   -2.645918   -1.572883
