18

C      -0.070243    1.400516   -0.122475
N       0.012824   -0.027685    0.150338
C      -1.215119   -0.776085    0.079927
C      -1.428243   -1.822328   -0.996839
C      -1.148390   -2.224460    0.434121
C       0.229264   -2.688935    0.834435
O       1.263006   -1.989990    0.135386
C       1.246671   -0.626482    0.046363
O       2.279128   -0.032345   -0.147259
H       0.905872    1.843606    0.064874
H      -0.354577    1.599832   -1.164169
H      -0.816071    1.856786    0.536434
H      -2.066545   -0.188067    0.404392
H      -2.431759   -1.969377   -1.379933
H      -0.634342   -1.955542   -1.723458
H      -1.958823   -2.650781    1.017059
H       0.366742   -2.550094    1.915771
H       0.395889   -3.744999    0.604188
