21

C       0.636039    1.096051    1.182250
C      -0.224693   -0.036833    0.635501
O       0.572121   -1.084838    0.085966
C       0.580694   -2.309964    0.777269
C       1.544938   -2.352840    1.972320
O       1.061758   -1.537509    3.049448
C       0.917260   -2.308574    4.240048
C       1.321211   -3.702536    3.852159
C       1.687579   -3.724385    2.576244
H       1.322868    1.457505    0.410870
H       0.003147    1.933951    1.495772
H       1.214667    0.756141    2.043846
H      -0.879446   -0.430356    1.422198
H      -0.863287    0.335079   -0.177361
H      -0.426577   -2.584281    1.127377
H       0.903571   -3.065866    0.049923
H       2.511515   -1.949458    1.629153
H       1.556852   -1.893532    5.035486
H      -0.121685   -2.252617    4.600562
H       1.313708   -4.535544    4.543625
H       2.038528   -4.580877    2.014793
