17

C      -0.073599    1.548403   -0.032728
C       0.044525    0.033980   -0.052630
C      -1.088930   -0.660816    0.682430
C       0.584101   -0.730708   -1.228543
N       1.315065   -0.681665    0.129614
C       2.413247    0.134343   -0.499047
C       1.727424   -0.004078   -1.871801
O       2.066933    0.183654   -3.004628
H       0.653668    2.060566   -0.663577
H      -1.068570    1.838228   -0.384357
H       0.034995    1.920608    0.992415
H      -2.049380   -0.453910    0.199785
H      -0.930105   -1.741022    0.708911
H      -1.142192   -0.300373    1.715202
H       0.091674   -1.617912   -1.613204
H       2.575967    1.125128   -0.070039
H       3.350998   -0.428280   -0.478276
