15

O      -0.105112    0.037600    0.088509
C       0.025363    1.227899   -0.049579
C       1.338141    1.911144   -0.048774
O       1.337732    3.321848    0.267220
C       1.753737    2.931807   -1.034479
C       3.249331    2.526800   -1.164066
C       3.709845    2.336195    0.298324
C       2.693573    1.184142    0.137333
O       3.124479    1.067687   -1.265962
H      -0.836762    1.916688   -0.180628
H       1.153573    3.276455   -1.870155
H       3.845371    2.982231   -1.953099
H       4.727474    1.950548    0.332929
H       3.531905    3.119641    1.032015
H       2.700657    0.248137    0.689777
