22

C      -0.014279    1.458797   -0.085948
C      -0.192822   -0.024069   -0.362088
O       1.024007   -0.530704   -0.889735
C       0.983879   -1.898271   -1.154180
C       0.554173   -2.387178   -2.525909
C       0.059075   -1.424440   -3.584189
C       2.018188   -2.433607   -2.102929
C       3.070540   -1.527921   -2.707471
H       0.802073    1.621164    0.623533
H       0.222877    1.996669   -1.008492
H      -0.931329    1.881388    0.335456
H      -0.448318   -0.562436    0.565552
H      -1.016264   -0.194472   -1.071951
H       0.712439   -2.501648   -0.285654
H       0.051253   -3.351426   -2.535324
H       0.436874   -0.413898   -3.415119
H       0.370956   -1.737852   -4.586757
H      -1.035289   -1.373660   -3.581653
H       2.387805   -3.426047   -1.856372
H       2.714875   -0.501283   -2.805344
H       3.963028   -1.503302   -2.072989
H       3.376521   -1.884169   -3.697267
