22

C      -0.338969    1.817221   -0.279678
C      -0.127647    0.304059   -0.405531
C      -1.371020   -0.500386   -0.052458
C      -1.357991   -2.065435   -0.077424
C       0.002708   -2.734658    0.107103
C      -2.234410   -2.059575    1.207898
C      -1.888428   -0.550014    1.436354
C      -0.869176   -0.321615    2.448405
N      -0.050343   -0.142120    3.246395
H       0.564264    2.364502   -0.564710
H      -1.155602    2.160156   -0.925092
H      -0.582274    2.100038    0.749646
H       0.160433    0.057315   -1.435703
H       0.710111   -0.000415    0.231087
H      -2.209298   -0.144902   -0.662384
H      -1.851023   -2.490487   -0.956655
H       0.522977   -2.369112    0.997984
H      -0.123633   -3.816774    0.220175
H       0.653952   -2.563712   -0.756106
H      -3.299801   -2.187078    1.005043
H      -1.941208   -2.744847    2.005520
H      -2.738951    0.099716    1.656095
