21

C      -0.235298    1.550671    0.013916
C       0.012123    0.045045    0.003907
C       0.857078   -0.495416   -1.197227
C       1.978203   -1.250823   -0.452097
O       1.297542   -1.752849    0.714378
C       0.880006   -0.480140    1.169949
O       2.078241    0.285845    1.262485
C       2.929203   -0.227433    0.209529
C       4.192490   -0.825375    0.808402
H       0.709725    2.100360    0.027788
H      -0.804290    1.859918   -0.868605
H      -0.807815    1.851090    0.898427
H      -0.946457   -0.483371    0.042413
H       0.279044   -1.174439   -1.827503
H       1.249023    0.306533   -1.829275
H       2.463511   -2.066844   -0.985911
H       0.411184   -0.546716    2.152270
H       3.175494    0.593387   -0.475226
H       3.942708   -1.698989    1.416227
H       4.891509   -1.126295    0.020297
H       4.690556   -0.090137    1.446654
