18

C      -0.222981    1.530161    0.045417
C       0.045426    0.042000   -0.057423
N       0.719865   -0.467544   -1.306670
C       2.095524    0.061890   -1.311418
C       1.798641   -1.085545   -0.435815
C       1.155319   -0.608447    0.867056
O       2.001261    0.274139    1.587003
C       0.644009   -1.668526    1.724580
C       0.208986   -2.512293    2.462895
H       0.695424    2.118869    0.092326
H      -0.809477    1.861114   -0.817740
H      -0.801485    1.747170    0.949691
H      -0.887629   -0.516931    0.042664
H       2.616342   -0.153166   -2.239293
H       2.319267    1.030215   -0.877532
H       2.174487   -2.088437   -0.602336
H       1.632460    0.384627    2.470208
H      -0.170366   -3.266855    3.107232
