24

C       0.073229    1.550724    0.049020
C       0.081591    0.020970   -0.000209
C      -1.335957   -0.565414    0.010648
N      -1.360266   -2.027275    0.004614
C      -1.361676   -2.679279    1.299698
C      -1.369013   -2.665605   -1.209550
O      -1.331515   -2.033044   -2.255052
C      -1.433809   -4.195345   -1.216005
C      -1.527196   -4.750957   -2.636661
H       1.089944    1.953888    0.024848
H      -0.471071    1.969449   -0.804425
H      -0.408671    1.919137    0.962021
H       0.583828   -0.324412   -0.909871
H       0.652424   -0.374901    0.849711
H      -1.881070   -0.224082    0.899709
H      -1.877151   -0.221940   -0.873622
H      -1.239635   -3.755816    1.200217
H      -0.536385   -2.307101    1.919131
H      -2.298422   -2.488796    1.841760
H      -0.543701   -4.594897   -0.713086
H      -2.291222   -4.529143   -0.618878
H      -1.559861   -5.844327   -2.616457
H      -2.424274   -4.384055   -3.140752
H      -0.669666   -4.435560   -3.234645
