19

C      -0.125055    1.375503   -0.050770
C       1.284961    0.921984    0.097121
N       0.189809   -0.043561    0.090438
C      -0.138761   -0.647049    1.368707
C      -1.498349   -1.346351    1.306097
C      -0.884149   -2.620508    0.874465
C       0.456917   -2.076336    1.501475
C      -0.130007   -2.545577    2.839703
N      -1.503182   -2.536309    2.227829
H      -0.572673    1.885908    0.800824
H      -0.510972    1.680546   -1.019067
H       1.948760    0.888823   -0.761868
H       1.776332    1.130863    1.046378
H       0.047355    0.038771    2.215173
H      -2.462683   -0.923209    1.057491
H      -1.141154   -3.354279    0.123464
H       1.479397   -2.272524    1.185475
H       0.123962   -3.577560    3.094513
H      -0.001782   -1.903677    3.720226
