23

C       0.676463    1.361446    0.138752
C      -0.029924    0.017145    0.001630
C       0.651673   -0.974019   -0.996468
C       1.177106   -1.758753    0.210601
C       0.257876   -0.987455    1.164016
O       1.348562   -3.167441    0.233083
C       2.510722   -2.336276    0.450031
C       3.533003   -2.379449   -0.664357
C       3.074382   -2.395382    1.852721
H       1.747316    1.228006    0.333129
H       0.577352    1.956397   -0.775747
H       0.259748    1.945566    0.966551
H      -1.093847    0.175745   -0.191304
H      -0.065648   -1.562461   -1.575789
H       1.390962   -0.548464   -1.681554
H       0.706959   -0.571788    2.070953
H      -0.616417   -1.581255    1.445865
H       3.049043   -2.367349   -1.643003
H       4.216388   -1.525203   -0.600510
H       4.134478   -3.292536   -0.593494
H       3.662318   -3.310023    1.987949
H       3.736302   -1.543201    2.043685
H       2.276497   -2.391927    2.598032
