20

C       0.226670    1.262808   -0.670303
C       1.279115    0.528678    0.081077
C       1.857504    1.020900    1.399465
O       0.897775    1.519269    2.317136
C       0.695221    0.694171    3.452892
C       0.139274   -0.681497    3.169764
C      -0.574410   -1.046003    2.105114
C      -1.008749   -0.115590    1.000883
N      -0.042548   -0.064441   -0.112663
H      -0.231059    2.113314   -0.166883
H       0.261706    1.337666   -1.754618
H       2.049212    0.026340   -0.507571
H       2.438961    0.211045    1.859686
H       2.562288    1.834939    1.177369
H       1.641035    0.583333    4.009535
H       0.016732    1.259125    4.105260
H       0.379353   -1.427540    3.925414
H      -0.869821   -2.088079    2.010930
H      -1.947769   -0.482177    0.569959
H      -1.205288    0.878021    1.417329
