20

C       0.075699    1.501786    0.030242
C      -0.030433    0.007719   -0.021168
C      -0.051065   -0.887904    1.243654
C       1.010826   -1.050518    0.194683
N       0.103051   -2.061046   -0.518216
C      -0.712018   -2.178152    0.770062
C      -2.188774   -2.102312    0.388451
C      -2.178887   -1.198132   -0.881221
C      -0.695597   -0.883030   -1.071059
H       0.742263    1.825326    0.836999
H       0.473682    1.904034   -0.908578
H      -0.901157    1.968419    0.204920
H       0.026754   -0.461450    2.236907
H       2.091631   -1.062647    0.206869
H      -0.421296   -3.064304    1.338531
H      -2.586580   -3.096168    0.163007
H      -2.789221   -1.685877    1.202545
H      -2.582652   -1.728501   -1.748561
H      -2.767493   -0.284344   -0.756153
H      -0.394888   -0.651776   -2.096260
