15

N       0.071180    1.411802    0.154389
C      -0.026573    0.022004    0.053608
C      -1.146773   -0.774382    0.026278
N      -0.660042   -2.078948   -0.001863
C       0.683684   -1.984957    0.010168
N       1.526673   -3.092682   -0.010733
C       1.122079   -4.391880   -0.051518
O      -0.039626   -4.756652   -0.076437
N       1.118271   -0.742929    0.041071
H       0.973661    1.733908   -0.170187
H      -0.670195    1.903222   -0.326075
H      -2.200538   -0.558765    0.034673
H      -1.152561   -2.959028   -0.031895
H       2.511685   -2.875040    0.008896
H       1.975132   -5.092160   -0.060040
