17

C      -0.406698    1.311935    0.017040
C       0.066834   -0.129886    0.079216
C       0.918566   -0.651894   -1.135745
C       2.025560   -1.061538   -0.108381
N       1.238866   -0.399825    0.929858
C       1.374687   -0.522469    2.274562
O       2.333894   -1.028193    2.816208
C       0.333204   -1.708261   -1.938960
N      -0.143303   -2.551128   -2.570406
H       0.423237    1.986337   -0.214221
H      -1.177298    1.422385   -0.752777
H      -0.841381    1.619952    0.972761
H      -0.770536   -0.802267    0.300958
H       1.236642    0.167259   -1.784487
H       2.126576   -2.140044    0.044084
H       3.012421   -0.626515   -0.282224
H       0.514872   -0.088695    2.824362
