21

C      -0.454719    1.453323   -0.143198
C      -0.081866   -0.023762   -0.056946
C       1.092332   -0.467321   -0.989394
C       2.051675   -0.466300    0.219051
O       2.744945    0.770857    0.288482
C       3.034449    1.097634    1.640535
C       1.741381    1.355649    2.400079
O       0.868028    0.231324    2.366535
C       0.813461   -0.476357    1.149766
H       0.433322    2.088122   -0.190021
H      -1.047960    1.643058   -1.044460
H      -1.053149    1.757544    0.721948
H      -0.988731   -0.628380   -0.153550
H       0.957936   -1.465237   -1.413328
H       1.371835    0.226235   -1.785355
H       2.764673   -1.297394    0.323072
H       3.604883    0.284721    2.119000
H       3.656179    1.997814    1.627355
H       1.947855    1.547363    3.458407
H       1.248965    2.243754    1.980834
H       0.552652   -1.504483    1.420953
