15

N       0.332673    0.603329   -0.316323
C      -0.660550    0.385008    0.585364
O      -0.772333    0.971954    1.642085
C      -1.717218   -0.640856    0.132814
C      -1.170322   -1.940148   -0.446130
O      -0.289719   -1.970630   -1.274972
C      -1.822234   -3.202582    0.092689
O      -1.304830   -4.327665   -0.558637
H       1.099712    1.185726   -0.019621
H       0.480305   -0.078333   -1.049006
H      -2.377924   -0.819693    0.982509
H      -2.313872   -0.171622   -0.660578
H      -1.641382   -3.209842    1.183027
H      -2.914058   -3.090171   -0.034592
H      -1.717045   -5.110154   -0.181163
