18

C      -0.117980    1.587086   -0.001837
C      -0.002066    0.058221   -0.027269
C      -1.395428   -0.590017    0.033513
C       0.805137   -0.452910   -1.250416
C       1.831557   -1.433097   -0.697876
O       2.533476   -2.185980   -1.312400
C       1.822961   -1.288352    0.841562
O       2.552279   -1.841429    1.630595
N       0.819713   -0.402236    1.102673
H       0.871837    2.052038   -0.016029
H      -0.682518    1.943599   -0.868930
H      -0.641716    1.924572    0.899385
H      -2.013088   -0.258017   -0.806882
H      -1.319803   -1.680953   -0.002173
H      -1.911115   -0.315786    0.959899
H       0.180739   -0.925251   -2.011776
H       1.347804    0.365901   -1.736098
H       0.575527   -0.177960    2.056542
