17

C       0.016768    1.670675    0.158844
C       0.071083    0.149683   -0.024915
N      -1.273423   -0.388293   -0.021354
C      -1.790890   -1.036499   -0.983686
N      -3.093409   -1.536211   -0.944015
C      -4.040957   -1.456382    0.058922
O      -3.924110   -0.916849    1.126883
C      -1.147481   -1.383866   -2.307650
O      -1.730630   -2.013253   -3.159950
H       1.027070    2.075720    0.269226
H      -0.454227    2.149930   -0.704947
H      -0.567130    1.923186    1.047190
H       0.679563   -0.094569   -0.906324
H       0.581680   -0.290776    0.840946
H      -3.352597   -2.030700   -1.788778
H      -4.966592   -1.977476   -0.261271
H      -0.117132   -1.029178   -2.464194
