13

N      -0.189987    1.575787   -0.110065
C       0.008796    0.128908   -0.013638
C      -1.250507   -0.576310    0.204856
C      -2.281935   -1.175451    0.357770
C       0.822937   -0.435708   -1.222717
N       0.684538   -1.761771   -1.463940
O       1.580305    0.293591   -1.832037
H       0.654723    1.945420   -0.545810
H      -0.937557    1.754603   -0.776173
H       0.656561   -0.059365    0.857229
H      -3.199867   -1.687847    0.511097
H      -0.069699   -2.280116   -1.045331
H       1.180276   -2.159046   -2.245672
