16

C       0.022835    1.541640   -0.084866
C       0.009008    0.008181   -0.049563
O       0.718296   -0.510924    1.062406
C      -1.400079   -0.518616   -0.081526
N      -2.056619   -1.022743   -1.080071
C      -3.283042   -1.291703   -0.504797
N      -4.318128   -1.792246   -1.246935
N      -3.381922   -0.988801    0.770288
O      -2.101515   -0.450375    1.051091
H       1.057368    1.892444   -0.058319
H      -0.457424    1.917364   -0.993276
H      -0.510859    1.951528    0.778990
H       0.511575   -0.386073   -0.936513
H       0.244140   -0.256531    1.862584
H      -4.028650   -2.318900   -2.056507
H      -5.062267   -2.218475   -0.715961
