19

C      -0.030971    1.588312   -0.014035
C       1.492215    1.946470    0.000594
C       2.179958    0.584670   -0.202288
C       2.037494   -0.343937    1.024573
C       2.294630   -1.719164    0.413900
O       1.590634   -1.635849   -0.842295
C       1.156112   -0.289252   -0.962395
C       0.019968    0.061222    0.026035
O       0.620243   -0.296863    1.297812
H      -0.570027    1.984687    0.848720
H      -0.526588    1.950668   -0.921650
H       1.753562    2.639401   -0.803717
H       1.794203    2.415456    0.941113
H       3.185414    0.613077   -0.623234
H       2.595375   -0.099430    1.929365
H       3.359328   -1.929302    0.237093
H       1.862533   -2.515711    1.027075
H       0.956256   -0.063350   -2.010088
H      -0.923137   -0.473918   -0.089474
