19

C      -0.081896    1.560183   -0.045291
C       0.003580    0.027204   -0.018335
C       0.754202   -0.515366   -1.240437
O       0.998989   -1.904595   -1.118146
C       1.890664   -2.208063   -0.069591
C       1.563840   -1.478216    1.223304
C       0.676821   -0.472055    1.232787
C       2.253926   -1.918398    2.384105
C       2.870711   -2.337502    3.331037
H       0.916076    2.010932   -0.018138
H      -0.587699    1.909160   -0.951652
H      -0.642067    1.936346    0.816456
H      -1.021848   -0.371559   -0.045489
H       0.167492   -0.385135   -2.154344
H       1.703013    0.034679   -1.363570
H       1.827844   -3.289296    0.090254
H       2.932501   -1.982388   -0.359050
H       0.438687    0.024428    2.169881
H       3.404771   -2.691782    4.177518
