14

O      -0.140697    1.378735    0.175686
C       0.036497    0.002203    0.009568
C       0.836735   -0.278814   -1.265131
O       1.208412    0.620539   -1.973307
C       0.711287   -0.638950    1.187544
C       0.316055   -1.570689    2.095430
C       1.456744   -1.721156    2.928623
N       2.449092   -0.953221    2.552261
O       1.979978   -0.265298    1.439365
H       0.348838    1.794098   -0.553497
H      -0.935663   -0.506040   -0.112398
H       1.042183   -1.342224   -1.493134
H      -0.640598   -2.059987    2.169281
H       1.586642   -2.359343    3.791137
