17

O       0.032070    0.053503    0.021723
C       0.006056    1.251016    0.013337
C      -1.202771    2.221194    0.019336
C      -0.365309    3.514042    0.045602
O       0.640323    3.217632   -0.985549
C       1.164423    2.268161    0.001504
C       0.709954    3.235764    1.100892
C       1.533006    4.200771    1.880880
C       0.686909    3.154455    2.590978
H      -1.798982    2.129653   -0.891747
H      -1.844264    2.060186    0.889908
H      -0.857701    4.478847   -0.072280
H       2.184081    1.924825   -0.159909
H       2.610440    4.074632    1.885306
H       1.204264    5.234234    1.923385
H      -0.205425    3.488612    3.110829
H       1.196815    2.325200    3.070401
