19

O       0.046032    1.438924    0.059221
C      -0.031673    0.020086    0.037290
C       0.601345   -0.570378    1.308031
C      -0.218768   -1.845946    1.616960
C      -1.524258   -1.587737    0.901774
C      -1.444877   -0.551288    0.065140
C      -2.519896   -0.012144   -0.794699
C      -2.950086    1.398267   -0.718625
O      -2.125264    0.947913   -1.797596
H      -0.282226    1.731271   -0.800139
H       0.478844   -0.354819   -0.865598
H       1.672715   -0.754761    1.203499
H       0.463081    0.167837    2.104418
H       0.270362   -2.746652    1.219732
H      -0.349325   -2.019056    2.691006
H      -2.405554   -2.204234    1.050353
H      -3.260641   -0.729352   -1.148360
H      -3.969920    1.660262   -0.995240
H      -2.458822    2.055075   -0.005251
