16

O       0.353695    1.186838    0.654824
C       0.076751   -0.088086    0.154274
C      -1.405923   -0.479000    0.054141
N      -1.440587   -1.580236   -0.928156
C      -0.448184   -1.255254   -1.974106
C      -1.054630   -0.651870   -3.158190
C      -1.540603   -0.128609   -4.123771
C       0.527185   -0.249296   -1.296528
O       1.427189    0.367672   -1.797889
H       1.065206    1.547194    0.104957
H       0.597384   -0.872679    0.737645
H      -1.842204   -0.800610    1.000657
H      -1.984907    0.373012   -0.320001
H      -1.172230   -2.447133   -0.476013
H       0.110168   -2.151213   -2.270517
H      -1.974869    0.324184   -4.980777
