19

C      -0.250903    1.365278    0.130716
N       0.242751   -0.007228    0.066355
C       0.822652   -0.479574   -1.197052
C      -0.077799   -0.103141   -2.389177
C       2.267588   -0.017545   -1.433090
C       0.786619   -2.009638   -1.058964
O       1.738100   -2.742052   -1.145867
C      -0.552702   -2.577380   -0.771434
N      -1.578667   -3.083992   -0.603192
H       0.477173    2.130796   -0.183540
H      -1.148887    1.477464   -0.482046
H      -0.535189    1.576500    1.164792
H       0.912061   -0.161409    0.812473
H      -0.045215    0.974879   -2.564712
H       0.275518   -0.598702   -3.297583
H      -1.115825   -0.396209   -2.212457
H       2.920351   -0.354217   -0.622947
H       2.669535   -0.419294   -2.366917
H       2.304830    1.074365   -1.484060
