12

N       0.013166    1.358507    0.151180
C       0.067682   -0.011004    0.037716
N      -1.027334   -0.754455    0.001282
O      -0.633404   -2.122070   -0.021631
C       0.704929   -2.126327   -0.018755
C       1.206790   -0.866491    0.018872
O       2.548699   -0.877728    0.023586
N       2.937877   -2.231755   -0.012568
C       1.844287   -2.966873   -0.036053
H       0.758339    1.855510   -0.314111
H      -0.899737    1.745685   -0.045070
H       1.937552   -4.041793   -0.064585
