19

C       0.115371    1.430049    0.062553
C      -0.078005   -0.051197   -0.242492
N      -1.393004   -0.497843    0.221155
C      -1.720462   -1.837993    0.134858
C      -2.907398   -2.487351   -0.055895
C      -2.608932   -3.890969    0.062817
N      -3.561346   -4.920066    0.013751
C      -1.273227   -3.985446    0.298195
O      -0.718943   -2.713296    0.351439
H       1.105167    1.761617   -0.263720
H      -0.627455    2.044099   -0.460352
H       0.018045    1.621220    1.134992
H       0.062478   -0.237884   -1.319997
H       0.675108   -0.645426    0.280740
H      -2.147236    0.088506   -0.109454
H      -3.871007   -2.038990   -0.240081
H      -4.276106   -4.749627   -0.682448
H      -3.147095   -5.827717   -0.155500
H      -0.587461   -4.801066    0.442547
