17

O      -0.014167    1.413261    0.016704
C       0.014056    0.029996    0.004034
C      -1.249540   -0.866531    0.087005
C      -0.897217   -1.502047   -1.272607
C       0.500315   -0.798973   -1.225148
O       1.586532   -1.615669   -0.826045
C       1.736783   -1.604113    0.600372
C       0.555711   -0.835234    1.168337
O      -0.669398   -1.612256    1.183588
H       0.827458    1.744786   -0.316225
H      -2.263445   -0.525825    0.299534
H      -0.888177   -2.592440   -1.311959
H      -1.514889   -1.099748   -2.081423
H       0.781039   -0.247259   -2.126665
H       1.764868   -2.634804    0.970934
H       2.683776   -1.110988    0.864896
H       0.744929   -0.353993    2.132297
