15

C       0.090025    1.490357   -0.042047
C       1.352673    0.693097    0.010417
N       0.005578    0.029556   -0.033440
C      -0.188864   -0.621013   -1.373740
C       1.082867   -0.304475   -2.107688
C       1.918565    0.386407   -1.310339
O       3.055754    0.668421   -1.995017
C       2.816931    0.101659   -3.220997
N       1.664170   -0.479326   -3.352572
H      -0.288217    1.966051    0.859493
H      -0.115516    2.025451   -0.967308
H       1.928531    0.594131    0.925141
H      -0.344925   -1.694715   -1.221229
H      -1.090671   -0.220240   -1.848594
H       3.613002    0.184886   -3.943856
