21

C       0.113338    1.339323   -0.479950
C       0.078504   -0.097435    0.043226
O       0.795128   -0.214732    1.276099
C      -1.340670   -0.612889    0.186257
C      -2.028846   -1.343086   -0.944043
C      -1.626964   -2.091981    0.300612
C      -0.519422   -3.101234    0.257597
C      -0.575607   -4.271944   -0.629580
O       0.275351   -3.163601   -0.930779
H       1.145794    1.690606   -0.556585
H      -0.357442    1.410787   -1.465509
H      -0.427697    2.012941    0.197223
H       0.624726   -0.746156   -0.647323
H       0.349441    0.341667    1.924624
H      -1.978298    0.033741    0.788943
H      -3.080843   -1.154129   -1.125689
H      -1.438855   -1.541473   -1.832618
H      -2.421594   -2.367683    0.990039
H       0.066728   -3.184728    1.172795
H      -0.060868   -5.191007   -0.353802
H      -1.430517   -4.393214   -1.293160
