19

O      -0.132702   -0.039664   -0.232161
C       0.034324    1.136877   -0.033544
C       1.380356    1.832849   -0.100517
C       1.375216    2.939821   -1.140773
C       1.320567    2.589997   -2.650304
C       2.440056    3.643998   -2.921813
C       2.514022    3.973730   -1.406322
C       1.485697    5.010136   -0.929258
O       0.450834    4.004880   -0.801881
H      -0.816389    1.809116    0.209161
H       1.584794    2.278818    0.882007
H       2.149968    1.088616   -0.324122
H       1.620432    1.563250   -2.875755
H       0.347381    2.783011   -3.106068
H       3.359966    3.205886   -3.314364
H       2.161908    4.484741   -3.562870
H       3.488588    3.957327   -0.919388
H       1.710081    5.471966    0.040708
H       1.215040    5.797339   -1.644043
