14

N      -0.060313    1.314090   -0.148275
C      -0.018378    0.064556    0.037283
C      -1.270251   -0.781155    0.089581
C      -1.098838   -1.975896    1.028950
O       0.116292   -2.646789    0.711514
C       1.197464   -1.803533    0.912281
O       1.165522   -0.624512    0.099537
H       0.889089    1.691857   -0.191251
H      -2.113941   -0.149071    0.371488
H      -1.453754   -1.160431   -0.922892
H      -1.080571   -1.649468    2.081165
H      -1.903927   -2.703373    0.908276
H       1.255663   -1.486574    1.967725
H       2.102451   -2.340479    0.625042
