21

C      -0.161287    1.367775    0.009620
O       0.114770   -0.014350    0.056089
C       0.732279   -0.541028   -1.103894
C       1.341070   -1.889669   -0.721557
C       2.009938   -2.568299   -1.923125
C       1.024952   -2.757145   -3.093902
C       0.347638   -1.442560   -3.452618
O       0.309593   -1.009360   -4.580513
C      -0.267906   -0.700451   -2.271388
H       0.743773    1.954459   -0.211939
H      -0.928281    1.622778   -0.735561
H      -0.531621    1.652674    0.997429
H       1.540497    0.139322   -1.425590
H       2.060361   -1.737045    0.088751
H       0.541852   -2.526840   -0.321292
H       2.859082   -1.961255   -2.262932
H       2.421412   -3.538164   -1.627311
H       1.514825   -3.153716   -3.985925
H       0.242502   -3.468126   -2.792822
H      -1.117034   -1.287455   -1.895142
H      -0.645090    0.259679   -2.629022
