25

C      -0.134371    1.448979   -0.105346
C       0.391296    0.018763    0.052840
C       0.631180   -0.732419   -1.277961
C       1.771524   -0.097033   -2.083390
C       0.845086   -2.223013   -0.986187
C      -0.402631   -3.037536   -0.668033
C      -1.248595   -3.367512   -1.904733
C       2.014742   -2.970097   -1.481501
O       1.970408   -2.505125   -0.131088
H       0.578893    2.099030   -0.620986
H      -1.071620    1.467977   -0.673716
H      -0.333193    1.897548    0.873124
H       1.330342    0.021497    0.618160
H      -0.322875   -0.546537    0.662292
H      -0.287693   -0.655458   -1.876029
H       1.878953   -0.563057   -3.067296
H       1.588755    0.968032   -2.246643
H       2.722896   -0.194384   -1.549433
H      -0.075793   -3.962251   -0.181156
H      -1.018397   -2.504503    0.065636
H      -1.621677   -2.463882   -2.397355
H      -0.668123   -3.931352   -2.642576
H      -2.117574   -3.972505   -1.629039
H       1.937427   -4.051124   -1.602951
H       2.758973   -2.494606   -2.114621
