20

C       0.062594    1.519358    0.006366
C      -0.010885   -0.013650   -0.003882
C      -1.466955   -0.500016   -0.041970
C       0.825956   -0.636565   -1.115315
C       2.280262   -0.797123   -0.694496
C       1.344336   -1.974412   -0.666783
N       1.284849   -1.986920    0.849723
C       2.196582   -0.794230    0.841245
C       0.759140   -0.620215    1.160364
H       1.101158    1.863501    0.011977
H      -0.430195    1.939620   -0.877056
H      -0.437643    1.932218    0.889264
H      -1.972404   -0.150295   -0.948761
H      -1.515601   -1.592579   -0.024186
H      -2.030859   -0.120692    0.817120
H       0.594221   -0.476829   -2.161789
H       3.139449   -0.586277   -1.314463
H       1.316519   -2.903539   -1.219378
H       3.020961   -0.703319    1.538672
H       0.422433   -0.488639    2.183650
