15

O       0.069580    1.441246    0.098863
C       0.013771    0.064120   -0.015137
C      -1.378734   -0.707016   -0.056224
C      -2.410987    0.093723   -0.674967
C      -3.214439    0.776699   -1.256025
C      -0.733283   -1.730519   -1.091291
O      -1.475198   -2.269861   -2.126283
C       0.294205   -0.612334   -1.375528
O       0.796501   -0.215254   -2.386296
H      -0.415117    1.824066   -0.643047
H       0.632494   -0.361365    0.780743
H      -1.699947   -1.141398    0.891125
H      -3.953995    1.371287   -1.734138
H      -0.282488   -2.559501   -0.537339
H      -1.816106   -1.542948   -2.662273
