16

O      -0.001491   -0.066826    0.002598
C      -0.084157    1.136250    0.007021
C       1.140383    1.974374    0.001870
N       2.079254    2.649436   -0.001971
C      -1.354057    1.911291    0.017760
C      -1.830714    2.952914   -1.051746
C      -2.948180    2.895590    0.031332
C      -2.796339    1.343786    0.025149
C      -1.816859    2.945691    1.100293
H      -1.254673    3.878018   -1.121077
H      -2.071678    2.545159   -2.036226
H      -3.878534    3.461468    0.039221
H      -3.114110    0.819667   -0.878525
H      -3.102465    0.813602    0.929304
H      -2.045140    2.531320    2.085033
H      -1.239931    3.870331    1.168410
