21

C       0.121653    1.524299   -0.110091
C      -0.062698    0.035995    0.174606
C      -1.494347   -0.450164   -0.003237
O      -2.409898    0.314999   -0.212037
C      -1.701135   -1.957250    0.075492
C      -3.162742   -2.366253    0.220539
C      -3.468880   -3.749257   -0.338317
C      -4.832510   -4.318293    0.008016
O      -2.680555   -4.354975   -1.029113
H       1.158075    1.826393    0.064022
H      -0.136212    1.759182   -1.146271
H      -0.529095    2.125090    0.529637
H       0.590100   -0.580774   -0.457661
H       0.233733   -0.206904    1.205418
H      -1.300484   -2.397330   -0.848006
H      -1.078835   -2.371543    0.877100
H      -3.501309   -2.312834    1.262156
H      -3.790116   -1.641358   -0.316217
H      -5.623058   -3.587300   -0.192349
H      -5.011831   -5.231371   -0.560636
H      -4.875471   -4.545448    1.079870
