17

C       0.061063   -1.174110   -0.039287
C       0.020452    0.028662   -0.004016
C      -0.047405    1.449174    0.053419
C      -1.225226    2.276097    0.597220
C      -0.739391    3.461058   -0.296757
O       0.097402    4.354923    0.419120
C       1.225682    3.591679    0.862507
C       1.213400    2.325907    0.013207
C       0.188596    2.483525   -1.060464
H       0.098824   -2.234508   -0.071973
H      -2.177216    1.866380    0.251193
H      -1.276043    2.464929    1.673940
H      -1.489819    4.037942   -0.833623
H       2.134505    4.181081    0.695703
H       1.146720    3.379137    1.937047
H       2.140208    1.808630   -0.200281
H       0.334285    2.348128   -2.122913
