19

C       0.025281    1.561448    0.076119
C       1.522286    2.034891   -0.054791
C       2.165887    0.686123    0.203257
C       1.382194   -0.281461   -0.677730
C       0.046670   -0.012887    0.017057
O       0.047891   -0.628158    1.322509
C       1.347730   -0.926159    1.873924
C       2.229942    0.274666    1.608046
O       3.405662    0.301787    0.761755
H      -0.417932    1.880087    1.022135
H      -0.591644    1.960087   -0.734233
H       1.734588    2.425782   -1.055179
H       1.795169    2.795414    0.678588
H       1.367634    0.043748   -1.722502
H       1.718696   -1.316087   -0.635364
H      -0.837124   -0.408677   -0.487522
H       1.174239   -1.096570    2.938842
H       1.772396   -1.843624    1.447780
H       2.245827    1.048239    2.372966
