14

C      -0.083069    1.574239    0.023009
C       0.035451    0.044311   -0.039756
C       0.862163   -0.514447   -1.173205
C       1.839104   -1.270025   -0.663097
N       1.777087   -1.301277    0.739031
C       0.742693   -0.514441    1.213766
O       0.475198   -0.310260    2.375630
H       0.904711    2.043678   -0.006608
H      -0.666524    1.954624   -0.820236
H      -0.575572    1.867259    0.954075
H      -0.977574   -0.382495   -0.048041
H       0.680665   -0.333631   -2.221866
H       2.613303   -1.828694   -1.169712
H       2.436202   -1.757122    1.347626
