17

N       0.014898   -1.155211   -0.039655
C       0.013307    0.001322   -0.042056
C       0.029224    1.447682   -0.013542
C      -0.286089    2.302365    1.274107
N       0.477727    3.406226    0.550395
C       1.340079    2.276872    0.037108
C      -0.483970    3.623153   -0.571832
C      -0.176288    3.187997   -1.978103
C      -0.844770    2.219778   -1.031525
H      -1.333235    2.526015    1.485388
H       0.242437    1.977953    2.172891
H       2.013633    1.945028    0.827396
H       1.908176    2.460957   -0.871946
H      -1.213529    4.400377   -0.383127
H      -0.837866    3.612287   -2.727491
H       0.831709    3.041923   -2.344959
H      -1.855392    1.871804   -1.203993
