18

O       0.089681    1.403662    0.206508
C       0.140990    0.022536   -0.115195
C      -1.246144   -0.582864   -0.092725
C      -1.531894   -2.097615   -0.113043
C      -0.888366   -2.673958    1.172610
C      -2.181878   -2.630007    1.970501
C      -1.197855   -1.509614    2.116095
N      -1.950887   -0.537886    1.255119
C      -2.755423   -1.781359    0.813484
H      -0.523576    1.488691    0.946611
H       0.576686   -0.055712   -1.117826
H       0.801488   -0.526160    0.574634
H      -1.893105   -0.053439   -0.802296
H      -1.569321   -2.707359   -1.015003
H      -0.034264   -3.326811    1.285202
H      -2.618140   -3.305312    2.692872
H      -0.583621   -1.210687    2.954735
H      -3.788886   -1.649383    0.500256
