19

C       0.048988    1.471553    0.101456
C       0.047369    0.016277    0.059191
C       0.047445   -1.188908    0.023624
C       0.042477   -2.624922   -0.016439
C      -0.664161   -3.385218    1.120309
C      -1.302840   -3.345697   -0.216632
C       1.230702   -3.352550   -0.605546
C       2.374580   -2.512329   -1.126722
O       1.247157   -4.564367   -0.649485
H       0.990283    1.876212   -0.287084
H      -0.763789    1.891553   -0.501638
H      -0.070913    1.842834    1.125419
H      -0.180698   -4.307785    1.418953
H      -1.071522   -2.773751    1.915907
H      -2.163347   -2.706204   -0.369565
H      -1.252261   -4.241499   -0.824116
H       2.774413   -1.879952   -0.327083
H       3.155375   -3.163986   -1.519509
H       2.019162   -1.831959   -1.907702
