23

C      -0.054727    1.487932    0.122710
C       0.040561   -0.015155   -0.015127
C       0.711252   -0.710723   -1.200221
C       0.045918   -1.961885   -1.751677
C       1.371694    0.123106   -2.285711
C       1.366754   -0.740534    0.160386
O       2.528247    0.038506    0.287264
C       1.458911   -1.983029    1.012103
O       1.713354   -1.529082    2.345944
H       0.908156    1.966709   -0.065927
H      -0.791702    1.911915   -0.568536
H      -0.362145    1.758472    1.138915
H      -0.822768   -0.550212    0.376685
H      -0.682068   -1.688772   -2.524926
H       0.778358   -2.633711   -2.215478
H      -0.492120   -2.527327   -0.986442
H       1.940110    0.959171   -1.880408
H       2.065609   -0.493489   -2.868865
H       0.617590    0.514194   -2.978753
H       2.694431    0.084131    1.238247
H       0.532396   -2.568978    0.970690
H       2.286470   -2.615201    0.657538
H       2.068889   -2.263109    2.854291
