15

C       0.182861    1.346512    0.182201
O      -0.077623   -0.031543   -0.058816
C       0.572350   -0.571024   -1.179746
C       2.038464   -0.632059   -0.991854
N       3.184270   -0.647069   -0.848505
C      -0.011476   -1.997274   -1.347106
O       0.126395   -2.742246   -0.170379
C      -1.423487   -1.888262   -1.781269
N      -2.523593   -1.809633   -2.123376
H       1.246648    1.520980    0.384655
H      -0.130403    1.959241   -0.673272
H      -0.404601    1.622233    1.058677
H       0.368219    0.018087   -2.087058
H       0.547947   -2.522308   -2.127678
H      -0.221036   -2.199338    0.550490
