18

C      -0.084708    1.537635    0.016673
C      -0.013658    0.021740   -0.000262
O      -1.342860   -0.482583   -0.033253
C      -1.457624   -1.838921   -0.013895
C      -2.679420   -2.488567    0.056118
N      -3.996035   -2.014043    0.176506
N      -2.380635   -3.814887    0.053672
N      -1.062977   -4.072855   -0.027598
C      -0.490519   -2.867139   -0.058996
H       0.923239    1.962073    0.038248
H      -0.598419    1.909214   -0.874457
H      -0.627779    1.888355    0.898806
H       0.539968   -0.333955   -0.881927
H       0.504968   -0.358823    0.891988
H      -3.980343   -1.047952    0.484594
H      -4.498727   -2.042027   -0.706434
H      -3.035692   -4.574221    0.132159
H       0.583678   -2.786642   -0.122186
