17

O       0.008536    1.465992   -0.058131
C       0.009145    0.037744    0.043966
C       0.649219   -0.556446   -1.146598
C       1.168851   -1.008848   -2.130910
C       0.752308   -0.385833    1.246658
C       1.374676   -0.697354    2.226293
C      -1.463664   -0.366740    0.093093
C      -1.914482   -1.657905    0.717160
C      -2.240193   -0.342515    1.380063
H       0.922785    1.746949   -0.182516
H       1.627842   -1.415937   -2.998055
H       1.928046   -0.974322    3.089909
H      -1.978067   -0.041405   -0.804630
H      -2.705630   -2.207106    0.219665
H      -1.162159   -2.279171    1.189839
H      -1.702391   -0.095865    2.288077
H      -3.258763    0.026339    1.342411
