23

C      -0.031016    1.521081    0.035758
C       0.014733    0.021913   -0.056102
C       0.017189   -0.640181   -1.216552
C       0.037797   -2.146619   -1.305334
C      -0.085190   -2.805872    0.082826
C      -1.496245   -2.594102    0.701237
C      -1.390294   -1.300708    1.566052
C       0.027664   -0.755342    1.252854
C       0.830345   -2.055527    1.068793
H       0.856374    1.913989    0.549492
H      -0.087655    1.988105   -0.951501
H      -0.898074    1.856402    0.620558
H       0.006817   -0.088312   -2.154791
H      -0.777716   -2.494693   -1.955191
H       0.964471   -2.475781   -1.799976
H       0.159260   -3.868993    0.002177
H      -2.262174   -2.507328   -0.075055
H      -1.774635   -3.449803    1.323731
H      -2.174142   -0.574586    1.333740
H      -1.474474   -1.537584    2.632407
H       0.409753   -0.124447    2.061327
H       0.914957   -2.597201    2.018177
H       1.838725   -1.886031    0.679305
