19

C       0.083874   -1.202667    0.029546
C      -0.014283   -0.001097    0.018296
C      -0.064348    1.417192    0.003177
C      -1.210192    2.120424    0.028517
C      -1.134352    3.626699    0.008752
C      -0.113836    4.050767   -1.095117
C       0.989556    3.702464   -0.054307
C      -0.051308    4.075679    1.040856
C       1.251868    2.187813   -0.044305
H       0.150773   -2.262051    0.040036
H      -2.172844    1.621443    0.062497
H      -2.115885    4.101280    0.031958
H      -0.133052    3.499597   -2.038744
H      -0.153234    5.125688   -1.290535
H       1.926853    4.262801   -0.088280
H      -0.079944    5.154887    1.213141
H      -0.014923    3.546661    1.996577
H       1.871347    1.909649    0.818225
H       1.820051    1.889182   -0.934855
