17

C       0.021574    1.423851    0.089372
O      -0.062377    0.012836    0.026639
C       0.512097   -0.556182   -1.062126
C       0.568048   -1.909951   -1.355622
C       0.389242   -3.418876   -1.261374
C       1.171930   -3.464574   -2.639321
N       1.227048   -2.001083   -2.523834
N       1.633025   -0.860721   -3.070275
C       1.190896    0.040825   -2.165207
H       1.065958    1.763089    0.116333
H      -0.481183    1.894443   -0.766401
H      -0.478953    1.724761    1.011249
H       0.904795   -3.912114   -0.434194
H      -0.638764   -3.784368   -1.315097
H       2.150905   -3.949726   -2.612579
H       0.598204   -3.821213   -3.498494
H       1.375139    1.090120   -2.336164
