19

C       0.009878    1.609976    0.001766
C       0.001324    0.080906   -0.019598
O       0.774302   -0.458136    1.046090
C      -1.419129   -0.518114    0.004256
N      -2.219603   -0.006351   -1.096560
C      -1.471330   -2.057872    0.152682
O      -2.098008   -1.921204    1.471535
C      -2.045486   -0.552006    1.404979
N      -2.393675    0.326347    2.234254
H       1.042580    1.962211    0.069120
H      -0.428214    2.026266   -0.909824
H      -0.548868    1.988986    0.864580
H       0.485045   -0.274255   -0.936601
H       0.462024   -0.052746    1.864327
H      -3.131596   -0.455078   -1.103535
H      -2.397973    0.984026   -0.957240
H      -2.132255   -2.577096   -0.545557
H      -0.506132   -2.557630    0.237284
H      -2.788795   -0.088648    3.080819
