16

C      -0.026104    1.378575    0.020731
O       0.005858   -0.030886   -0.017750
C       0.639261   -0.534964   -1.167303
C       0.570990   -2.070667   -1.092013
C      -0.878289   -2.591210   -1.101129
C       1.351933   -2.650208   -2.187794
N       1.961034   -3.098388   -3.061770
H       0.987402    1.807983    0.020150
H      -0.578364    1.795877   -0.835122
H      -0.532561    1.666184    0.944616
H       0.138324   -0.182629   -2.084385
H       1.689169   -0.205537   -1.216278
H       1.050325   -2.367836   -0.151094
H      -1.372414   -2.340289   -2.044257
H      -0.904021   -3.676390   -0.978971
H      -1.428342   -2.124951   -0.282274
