15

C       0.021459    1.486161    0.101947
C       1.319844    0.713932    0.016770
N       2.064746    0.325452    1.229711
C       1.135167   -0.432824    1.930377
C      -0.006224   -0.743949    1.285230
N      -0.747310   -1.607367    2.074958
C      -0.018932   -1.748437    3.137231
O       1.178712   -1.043803    3.129093
C      -0.031417   -0.026689   -0.014634
H      -0.273837    1.930154    1.046626
H      -0.235948    2.067996   -0.776785
H       1.935500    0.818317   -0.868419
H       2.493967    1.097677    1.726948
H      -0.214392   -2.324129    4.026161
H      -0.400965   -0.489642   -0.921669
