19

C      -0.014247    1.544836   -0.013354
C       1.371201    2.136599   -0.045643
C       2.461558    1.381732   -0.133282
C       2.329273   -0.126923   -0.183720
O       1.081544   -0.498494   -0.763673
C      -0.013374   -0.003548    0.003163
C      -0.016451   -0.658250    1.406614
C       1.367795   -0.938514    1.931963
C       2.459355   -0.708237    1.209597
H      -0.569832    1.930053    0.850845
H      -0.566693    1.894653   -0.896608
H       1.445835    3.220643   -0.016461
H       3.459733    1.808905   -0.138569
H       3.091148   -0.553033   -0.845690
H      -0.903041   -0.347638   -0.532039
H      -0.568757   -0.027719    2.114647
H      -0.573331   -1.604539    1.360820
H       1.440309   -1.362872    2.930081
H       3.456695   -0.894196    1.596334
