19

C      -0.216442    1.408037    0.011502
C       0.101262   -0.062307    0.167265
O       1.089480   -0.552475   -0.804705
C       1.834892   -1.164073    0.261068
C       2.420965   -0.160215    1.211172
C       0.969705   -0.573604    1.331004
O       0.601577   -1.541998    2.254752
C       0.753156   -2.827581    1.607153
C       1.857501   -2.657407    0.511658
H       0.678093    2.023844    0.136998
H      -0.631924    1.605026   -0.981870
H      -0.956357    1.710336    0.760040
H      -0.811088   -0.668207    0.091172
H       3.058391   -0.559455    1.991946
H       2.689342    0.825443    0.844444
H       1.005268   -3.558990    2.380085
H      -0.199929   -3.125696    1.149144
H       1.616024   -3.214573   -0.395904
H       2.832019   -2.998363    0.871336
