23

C      -0.008550    1.579690   -0.019494
C       0.045952    0.048122   -0.028909
C       0.688770   -0.503333   -1.308583
C       0.466085   -2.018058   -1.422841
C       0.839101   -2.770344   -0.156699
C       2.182338   -2.591190    0.492028
C       0.951068   -2.026676    1.162496
C       0.756364   -0.513283    1.224232
O       2.040614    0.084904    1.423372
H       0.989090    2.016332   -0.143776
H      -0.626197    1.952722   -0.842476
H      -0.437234    1.964392    0.914078
H      -0.987519   -0.326452    0.017041
H       0.265780   -0.005489   -2.188503
H       1.758915   -0.262565   -1.300951
H      -0.597745   -2.194799   -1.632225
H       1.019197   -2.423273   -2.279443
H       0.416654   -3.769766   -0.095213
H       2.655904   -3.454554    0.946435
H       2.878277   -1.877324    0.067815
H       0.610441   -2.556125    2.046070
H       0.119697   -0.290327    2.094630
H       1.904131    1.022321    1.592249
