15

C       0.850694    1.522981   -0.080731
C       0.345488    0.120685   -0.140958
C       0.028494   -0.652760   -1.234148
N      -0.379776   -1.841353   -0.733968
N      -0.324507   -1.822886    0.610685
N       0.111003   -0.644372    0.963410
O       0.108955   -0.295976   -2.547720
C      -0.227486   -1.132688   -3.550848
N      -0.645189   -2.313943   -3.384042
H       0.163595    2.164692    0.479757
H       1.823115    1.569408    0.419558
H       0.962377    1.936004   -1.086262
H      -0.685526   -2.639411   -1.272223
H      -0.073715   -0.608735   -4.495546
H      -0.837432   -2.759764   -4.277247
