18

O       0.133461    0.044655   -0.592498
C       0.042249    1.156666   -0.157496
C      -1.115290    1.981805    0.426627
C      -0.104317    3.141514    0.695321
C       0.308192    3.353634    2.161999
C       1.299287    2.212111    2.469092
C       2.095663    2.043074    1.160217
C       1.057269    2.295816    0.049048
H      -1.892257    2.206809   -0.310950
H      -1.598402    1.536583    1.303127
H      -0.364763    4.071907    0.189921
H       0.820013    4.318526    2.258998
H      -0.547667    3.373116    2.844148
H       1.938377    2.426032    3.329869
H       0.755743    1.287378    2.698246
H       2.885518    2.800227    1.097028
H       2.570737    1.062577    1.065648
H       1.500013    2.654501   -0.883744
