20

C      -0.211496    1.580891    0.115232
C      -0.105322    0.072199    0.034433
C      -0.843567   -0.768046    1.025432
N       0.600243   -0.556601    1.159505
C       1.490568   -1.677809    0.878328
C       1.213817   -2.562222   -0.344465
O       1.716211   -3.657115   -0.439317
C       0.306855   -1.990599   -1.427461
C       0.162866   -0.466235   -1.364423
H       0.692370    2.057133   -0.281663
H      -1.065753    1.944700   -0.466909
H      -0.333812    1.901809    1.152280
H      -1.452812   -0.292521    1.790149
H      -1.203571   -1.749053    0.723812
H       2.504320   -1.275377    0.739520
H       1.542591   -2.329559    1.756504
H       0.690053   -2.322609   -2.396938
H      -0.671102   -2.475696   -1.312345
H      -0.630992   -0.136359   -2.044400
H       1.085849    0.002746   -1.733112
