12

O      -0.093592   -0.028530    0.004480
C       0.011856    1.162832    0.009549
O      -1.185557    1.921634    0.029705
C      -1.180190    3.266867    0.036809
C      -0.043882    4.004272    0.025418
C       1.203032    3.307350    0.004837
C       1.230337    1.953326   -0.002772
C      -2.486790    3.846774    0.057527
N      -3.533643    4.339183    0.074273
H      -0.100718    5.083446    0.031949
H       2.127352    3.875203   -0.004641
H       2.152610    1.386976   -0.018307
