18

C      -0.072467    1.457148   -0.072977
C       1.459315    1.422697   -0.015009
C       1.238251    0.076061    0.862091
C       1.742702   -1.222602    0.170110
C       0.966026   -0.568977   -0.975957
C       0.556912   -0.553399   -2.446932
O       1.034164    0.825368   -2.553570
C       1.782417    0.676104   -1.309860
N      -0.043879   -0.041979    0.050311
H      -0.542797    1.863423    0.826298
H      -0.542009    1.861287   -0.971305
H       2.074321    2.264827    0.303474
H       1.152893    0.180992    1.944523
H       2.808370   -1.404833    0.024009
H       1.250976   -2.081405    0.631569
H       1.121741   -1.224957   -3.105404
H      -0.515211   -0.635633   -2.650642
H       2.850513    0.550858   -1.513400
