21

C      -0.037422    1.590981   -0.168578
C       0.011329    0.063737    0.021555
C       0.686930   -0.607229   -1.152917
C       1.831430   -1.235567   -0.850494
C       2.792806   -1.950209   -1.742832
C       2.074350   -1.105656    0.609676
O       3.064623   -1.469978    1.205045
C       0.839488   -0.440263    1.239297
C       1.204610    0.547557    2.347460
H       0.967099    2.013245   -0.269524
H      -0.595578    1.843270   -1.076213
H      -0.531899    2.080690    0.675163
H      -1.026983   -0.285577    0.098949
H       0.272217   -0.530976   -2.154803
H       3.791903   -1.509183   -1.658745
H       2.895578   -2.998650   -1.441570
H       2.479645   -1.916224   -2.789328
H       0.282351   -1.268521    1.699530
H       1.739975    1.418251    1.958447
H       0.317356    0.903393    2.879488
H       1.863659    0.050034    3.063815
