18

C      -0.126983    1.477389   -0.049207
C      -0.045945    0.028039    0.065727
C       0.039443   -1.169171    0.162567
C       0.100906   -2.622120    0.269209
C      -1.241195   -3.292387   -0.049948
N      -1.633789   -3.327516   -1.484083
C      -1.966062   -4.775673   -1.445722
C      -1.291557   -4.832077   -0.065762
O      -0.913694   -5.693878    0.668507
H       0.860417    1.939661    0.059741
H      -0.526093    1.779029   -1.024064
H      -0.777931    1.904748    0.721649
H       0.858734   -3.021008   -0.415417
H       0.396850   -2.921857    1.283047
H      -2.017793   -2.893309    0.620204
H      -2.409448   -2.721427   -1.720360
H      -3.035544   -5.024219   -1.386153
H      -1.510156   -5.375522   -2.240776
