15

N       0.082915   -1.086857   -0.037784
C       0.060057    0.069363    0.009208
C      -0.005708    1.495627    0.046355
N       0.321038    2.307395   -1.159533
C       1.185382    2.394847    0.028242
C       0.712290    3.414563    1.094779
C      -0.751133    3.728905    0.710817
C      -0.846238    2.245002    1.123996
O       0.188983    2.506463    2.127367
H       0.760849    1.701885   -1.852609
H       2.201914    2.022640    0.006201
H       1.426411    4.147381    1.465587
H      -1.216109    4.360130    1.466254
H      -0.997795    4.030535   -0.303968
H      -1.738133    1.755895    1.509813
