21

C      -0.252108    1.494416    0.072533
C      -0.104849   -0.030269    0.038681
C       0.768550   -0.560470    1.170842
C       0.227223   -0.524032    2.636283
C       0.546515   -2.033718    2.810854
C      -0.648068   -2.980384    2.517349
C      -0.246193   -2.960681    1.027958
O      -0.711035   -3.452922    0.039996
C       0.998259   -2.104265    1.300474
H       0.721364    1.988606   -0.022544
H      -0.887197    1.849301   -0.744671
H      -0.702579    1.831050    1.012822
H      -1.096258   -0.497634    0.085958
H       0.326289   -0.340616   -0.921525
H       1.746911   -0.069754    1.125937
H       0.779605    0.140445    3.304003
H      -0.837197   -0.282181    2.724716
H       1.203850   -2.315063    3.631851
H      -0.519876   -3.986031    2.934295
H      -1.655798   -2.632257    2.763598
H       1.946389   -2.502824    0.935063
