21

C      -0.449012    1.481186   -0.023185
C      -0.013459   -0.001952   -0.020853
C       0.657204   -0.341245   -1.331168
C       1.981093   -0.351585   -1.496772
C       2.895862   -0.064763   -0.365518
O       2.676888    1.167427    0.371604
C       2.338549   -0.070581    0.995627
C       0.872600   -0.411342    1.192459
C       0.350867    0.112017    2.538144
H       0.425426    2.133905   -0.018071
H      -1.036801    1.699079   -0.920904
H      -1.074849    1.714713    0.843085
H      -0.931228   -0.601937    0.048356
H       0.005329   -0.534570   -2.179904
H       2.424496   -0.576009   -2.462086
H       3.949814   -0.294539   -0.508114
H       2.993150   -0.344036    1.826133
H       0.846688   -1.511015    1.233969
H       0.446537    1.198892    2.612662
H      -0.702940   -0.147051    2.683257
H       0.917460   -0.328018    3.365450
