18

C       0.064199    1.333374    0.006814
O       0.017634   -0.077850   -0.009317
C      -1.234355   -0.619178    0.005897
C      -2.481320   -0.034704    0.034368
N      -3.397604   -1.066044    0.037299
C      -2.762351   -2.292261    0.013309
C      -3.489432   -3.593161    0.010805
C      -1.412125   -2.030245   -0.007290
O      -0.411930   -2.961607   -0.036656
H       1.117510    1.619189   -0.007935
H      -0.440938    1.756814   -0.872575
H      -0.410088    1.735422    0.913038
H      -2.789402    0.995892    0.051017
H      -4.393105   -0.943904    0.060619
H      -4.136411   -3.710070   -0.868380
H      -2.764059   -4.409790   -0.002096
H      -4.119119   -3.722480    0.900706
H       0.421046   -2.477309   -0.037476
