14

O      -0.055569    1.308807   -0.076084
N       0.036650   -0.084445   -0.062178
C      -1.110096   -0.627154    0.033819
C      -2.472980    0.005322    0.190533
C      -3.341938   -1.117505    0.786415
O      -4.374466   -0.979022    1.384833
C      -2.620636   -2.428089    0.551661
O      -2.251796   -2.565030   -0.829723
C      -1.250592   -2.107294    0.090311
H       0.868148    1.579113   -0.125193
H      -2.456638    0.877150    0.848096
H      -2.885642    0.332893   -0.770479
H      -2.899502   -3.332788    1.081989
H      -0.396257   -2.756190    0.247282
