11

O      -0.079919   -0.037802    0.000514
C      -0.018370    1.171835    0.009207
C       1.222246    1.936799    0.001833
C       1.363734    3.317894    0.011014
N       2.686612    3.561296   -0.001530
N       3.441982    2.434773   -0.018302
C       2.558266    1.451010   -0.016034
H      -0.943358    1.791917    0.023778
H       0.633112    4.111861    0.024974
H       3.150369    4.454711    0.000221
H       2.881618    0.421519   -0.027330
