16

C       0.027847    1.553763    0.009609
C      -0.020830    0.014753    0.002712
C      -1.379254   -0.512162    0.012128
C      -2.514325   -0.919003    0.020434
C      -3.831751   -1.439392    0.030405
N      -4.887222   -0.640801    0.041537
O      -5.989031   -1.481455    0.048638
C      -5.575059   -2.757375    0.041130
C      -4.223052   -2.816137    0.028934
H       1.065697    1.898849    0.002013
H      -0.479510    1.962212   -0.868123
H      -0.463766    1.953807    0.900081
H       0.507456   -0.368686   -0.879861
H       0.522981   -0.377034    0.872093
H      -6.353303   -3.504745    0.045507
H      -3.584654   -3.682531    0.020410
