23

C      -0.822884    0.793744    0.471650
O      -0.538037   -0.576910    0.338612
C       0.133511   -0.884790   -0.865812
C       0.388921   -2.364284   -0.912199
C       1.228870   -3.206075    0.095051
C       0.715984   -4.216473   -0.970061
C      -0.666224   -3.511898   -0.852408
C       1.121753   -3.158719   -2.048990
C       0.589671   -3.213383   -3.474048
H       0.093963    1.405265    0.471425
H      -1.474499    1.158104   -0.339013
H      -1.337561    0.931196    1.425936
H      -0.473552   -0.573452   -1.734812
H       1.089044   -0.333247   -0.926806
H       2.306119   -3.013903    0.113774
H       0.817221   -3.303256    1.101944
H       0.906934   -5.290336   -1.001104
H      -1.188497   -3.626028    0.100246
H      -1.361444   -3.606560   -1.688159
H       2.201960   -2.965783   -2.070220
H      -0.485382   -3.400756   -3.531606
H       0.789585   -2.271929   -3.998247
H       1.092772   -4.008536   -4.035696
