17

C      -0.013365    1.492014   -0.012373
C      -0.039395   -0.025590   -0.063910
O       0.718966   -0.447534   -1.181423
C       0.769402   -1.831911   -1.322628
C       1.624270   -2.219139   -2.527511
C       1.651571   -3.707243   -2.837244
O       2.224822   -1.405464   -3.181776
H       1.014347    1.853422    0.080849
H      -0.442229    1.913207   -0.925750
H      -0.590487    1.853743    0.843810
H       0.380113   -0.453720    0.862703
H      -1.076188   -0.394524   -0.146639
H       1.201648   -2.322826   -0.429410
H      -0.237130   -2.273849   -1.449483
H       1.830854   -4.301905   -1.935183
H       0.680929   -4.019366   -3.240527
H       2.425428   -3.911224   -3.577963
