21

C      -0.007140    1.508789   -0.010024
C       0.036581   -0.004662    0.008868
C       0.721468   -0.729546   -1.176525
C       0.477357   -2.161184   -0.704666
C       0.475923   -2.131704    0.811453
C       0.731767   -0.683806    1.217517
C      -0.839378   -2.157450    0.044441
C      -1.350202   -0.724971    0.012715
O      -2.212224   -0.367516    1.078331
H       0.995505    1.941570    0.075237
H      -0.452747    1.880408   -0.939711
H      -0.614180    1.882902    0.820389
H       0.237486   -0.505763   -2.134062
H       1.785037   -0.480796   -1.263775
H       0.811847   -3.028616   -1.258679
H       0.809059   -2.978499    1.397141
H       1.797923   -0.437241    1.269225
H       0.277283   -0.405748    2.175380
H      -1.505234   -3.010724    0.055866
H      -1.907849   -0.492269   -0.901709
H      -1.896845   -0.809882    1.872836
