23

C      -0.007167    1.507193   -0.303707
C       0.084547    0.002720   -0.030460
O       0.683142   -0.705595   -1.115167
C      -0.135121   -0.902920   -2.224489
C      -0.045401    0.026084   -3.410952
C       0.544019   -1.369904   -3.470378
C       0.901447   -0.289673    1.215070
C       1.515757   -1.642384    1.452442
C       2.397926   -0.455598    1.143412
H       0.991177    1.922934   -0.470398
H      -0.624932    1.715418   -1.180638
H      -0.454278    2.019478    0.554694
H      -0.935153   -0.391842    0.120408
H      -1.112248   -1.324179   -1.984007
H      -0.945673    0.241273   -3.976801
H       0.655120    0.849371   -3.334983
H       1.624197   -1.450519   -3.426163
H       0.055567   -2.124055   -4.076873
H       0.517154    0.225125    2.091526
H       1.511095   -2.037865    2.462308
H       1.399008   -2.382030    0.669478
H       2.853816   -0.426836    0.161044
H       3.001340   -0.033563    1.939502
