18

C      -0.049556    1.630753   -0.065544
C       0.188286    0.132975    0.035031
C       1.452317   -0.678501   -0.167959
C       2.705792   -0.161400    0.595554
O       2.410864    1.065327    1.278497
C       1.989202   -0.172182    1.864407
C       0.693308   -0.721319    1.171909
C      -0.071319   -1.853749    1.795594
H      -0.107692    1.923110   -1.120517
H      -1.013514    1.880561    0.393309
H       0.728601    2.215053    0.414513
H      -0.628072   -0.411528   -0.445651
H       1.520329   -1.464291   -0.911243
H       3.742276   -0.362764    0.353093
H       2.310597   -0.386684    2.877479
H      -0.670498   -1.510149    2.648409
H      -0.754854   -2.311353    1.073366
H       0.600587   -2.639933    2.161452
