21

C       0.001380    1.484569   -0.031524
C       0.034738   -0.019059   -0.072944
C       0.575920   -0.938981   -1.190513
C       0.071442   -1.915250   -0.113897
C       0.554138   -0.991930    1.060041
C      -0.815558   -1.038231    1.729762
C      -1.348023   -1.851791    2.861951
C      -1.386238   -0.327834    2.913118
C      -1.158061   -1.007443    0.243667
H       1.012031    1.902327   -0.103830
H      -0.584227    1.887888   -0.865529
H      -0.446740    1.842999    0.900790
H       0.032816   -0.927838   -2.142099
H       1.656901   -0.913131   -1.367749
H       0.078253   -3.005704   -0.107461
H       1.549169   -0.983829    1.510221
H      -2.289467   -2.376462    2.730408
H      -0.645492   -2.361539    3.514260
H      -0.709434    0.171446    3.599955
H      -2.353233    0.156529    2.816147
H      -2.134241   -1.017203   -0.246018
