18

O      -0.217178   -0.043142    0.017688
C      -0.100472    1.152650   -0.050661
C       1.215146    1.900207   -0.054951
C       1.340337    2.856119   -1.247523
C       2.616191    3.717392   -1.249395
C       2.781750    4.082349   -2.736522
O       2.002593    3.146753   -3.488030
C       1.462296    2.168917   -2.614934
H      -0.998667    1.812558   -0.116516
H       1.256535    2.483932    0.876293
H       2.033262    1.173168   -0.034738
H       0.464630    3.518325   -1.272647
H       2.541336    4.596358   -0.604390
H       3.465644    3.119981   -0.899932
H       2.408712    5.090722   -2.955425
H       3.830271    4.035945   -3.056831
H       2.125539    1.289789   -2.540618
H       0.505593    1.834131   -3.028726
