17

O      -0.236193    0.210529   -0.148659
C      -0.025390    1.400379   -0.199256
C       1.310914    1.990573   -0.021414
C       1.515739    3.421523    0.370598
C       1.982257    3.060369   -1.003889
C       3.275437    2.238157   -0.969331
C       2.622365    1.206539    0.004483
C       1.329219    3.622299   -2.201788
O       0.260071    4.188578   -2.199943
H      -0.836816    2.132366   -0.394758
H       0.621613    4.037187    0.382003
H       2.251954    3.650722    1.136912
H       3.515790    1.798978   -1.940492
H       4.155163    2.772892   -0.599309
H       3.083653    1.112233    0.991308
H       2.509349    0.212948   -0.429542
H       1.900533    3.473259   -3.145242
