21

C      -0.078999    1.500427    0.039233
C       0.015115    0.002518   -0.017135
C       0.863331   -0.795248   -1.013438
C      -0.089820   -2.008636   -0.772111
O       0.417990   -2.899538    0.210975
C       0.552883   -2.135367    1.415668
C      -0.286360   -0.882905    1.191092
C      -1.091457   -1.054302   -0.066871
C      -2.580133   -0.977192   -0.222266
H       0.850667    1.942882    0.417255
H      -0.265010    1.924115   -0.954636
H      -0.889895    1.828091    0.698745
H       0.762201   -0.393990   -2.027190
H       1.924871   -0.961822   -0.797812
H      -0.407748   -2.592042   -1.636037
H       0.179050   -2.734867    2.254252
H       1.611706   -1.909238    1.605446
H      -0.744346   -0.392909    2.043671
H      -2.997986   -0.156023    0.369991
H      -2.871398   -0.811663   -1.266008
H      -3.062309   -1.903203    0.112869
