20

C       0.159389    1.630580    0.286315
C       0.126168    0.123064    0.168365
C       1.297696   -0.748305   -0.240248
C       2.612274   -0.253250    0.382180
N       1.969534   -0.329543    1.702760
C       2.249128    0.387737    2.818575
O       3.262667    1.035371    2.986655
C       0.705842   -0.848462    1.170591
C      -0.043411   -1.941278    1.873727
H       1.076322    1.989674    0.760003
H       0.089001    2.099076   -0.701121
H      -0.683200    1.990797    0.886272
H      -0.803415   -0.261744   -0.249260
H       1.236073   -1.468804   -1.044754
H       3.438430   -0.963822    0.285267
H       2.963839    0.746509    0.109954
H       1.454963    0.286158    3.586841
H      -0.536088   -1.572755    2.780656
H      -0.821571   -2.345758    1.219923
H       0.627720   -2.757263    2.160316
