17

C       0.039538    1.497557    0.070888
C       0.014046   -0.001515   -0.045353
C       0.624289   -0.658328   -1.288532
O       0.093203   -2.013979   -1.264407
C      -0.706878   -2.130052   -0.081023
C       0.211463   -2.016045    1.134005
O       0.624317   -0.620935    1.108226
C      -1.344973   -0.732119   -0.035026
O      -2.472170   -0.337776    0.004926
H       1.067423    1.870664    0.089522
H      -0.484013    1.950172   -0.775593
H      -0.459371    1.809020    0.991722
H       0.316819   -0.168489   -2.220380
H       1.717887   -0.688579   -1.232204
H      -1.355759   -2.999348   -0.148730
H      -0.305107   -2.226604    2.078532
H       1.089485   -2.664083    1.042369
