22

C       0.028339    1.391391   -0.034238
O       0.124074   -0.010955   -0.051323
C       0.539254   -0.551096    1.186030
C       0.635161   -2.055287    1.052319
C       1.757155   -2.658660    0.165020
C       1.954588   -3.772641    1.232281
C       3.361793   -4.246490    1.559497
C       1.205805   -2.863414    2.249610
H       0.996730    1.866388    0.192570
H      -0.296311    1.711866   -1.027496
H      -0.704789    1.744034    0.709428
H       1.519879   -0.132235    1.476721
H      -0.175123   -0.278620    1.984175
H      -0.341840   -2.447019    0.750625
H       1.499930   -2.958596   -0.853128
H       2.626534   -1.992116    0.121198
H       1.323288   -4.633425    0.982619
H       4.011181   -3.401059    1.815002
H       3.364050   -4.937193    2.410579
H       3.814463   -4.767438    0.708101
H       1.912651   -2.262782    2.834784
H       0.497906   -3.332214    2.938042
