11

C       0.017802   -1.176317   -0.004218
C       0.001319    0.025527    0.002932
C      -0.017916    1.455775    0.011479
N      -1.216537    2.059669    0.030522
C      -1.161389    3.388703    0.036678
N      -0.053961    4.133222    0.025634
C       1.073103    3.418945    0.006598
N       1.164006    2.091888   -0.001487
H       0.033174   -2.238872   -0.010519
H      -2.111903    3.917465    0.052250
H       2.009037    3.973239   -0.003136
