18

C      -0.045377    1.438420   -0.418086
C       0.072064   -0.049178   -0.205621
O       1.125595   -0.635997   -0.100512
C      -1.274791   -0.794823   -0.128839
O      -2.334066   -0.191122   -0.236481
N      -1.200775   -2.125622    0.060654
C      -0.146936   -3.139404    0.225874
C      -1.265791   -4.212664    0.353728
C      -2.310355   -3.073110    0.170836
H       0.948377    1.884660   -0.460058
H      -0.599872    1.639232   -1.340004
H      -0.636424    1.883211    0.388479
H       0.510943   -3.233699   -0.641483
H       0.474035   -2.986334    1.111858
H      -1.269027   -4.962760   -0.437394
H      -1.306141   -4.714573    1.320679
H      -2.964113   -2.876335    1.026515
H      -2.926849   -3.124482   -0.732273
