20

C       0.193197    1.614769   -0.344331
O      -0.305674    0.305494   -0.480807
C       0.592271   -0.587537   -1.101658
C       1.830904   -0.982514   -0.248591
C       2.055099   -2.418928   -0.653126
C       1.013753   -2.919612   -1.316374
C      -0.119050   -1.926926   -1.452030
C      -1.302402   -2.267445   -0.529256
H       1.066928    1.661890    0.322567
H       0.481991    2.042595   -1.317945
H      -0.606293    2.224004    0.084833
H       0.957281   -0.137405   -2.039801
H       2.699103   -0.342129   -0.439917
H       1.601735   -0.894984    0.822993
H       2.959232   -2.963061   -0.402139
H       0.934645   -3.938185   -1.681716
H      -0.497076   -1.887870   -2.481221
H      -0.986891   -2.321895    0.516928
H      -2.084444   -1.508961   -0.607270
H      -1.727987   -3.238276   -0.803692
