19

O      -0.161734    1.405794   -0.007688
C      -0.066449    0.024066    0.010679
C      -0.316973   -0.820098   -1.206396
C      -1.208009   -0.979888    0.012826
C      -0.517183   -1.789181    1.129055
C       0.176295   -3.114598    0.799473
O       1.440467   -2.773003    0.225537
C       1.903147   -1.570271    0.843361
C       0.651409   -0.745292    1.142152
H       0.507859    1.748549   -0.609391
H      -0.798609   -0.267336   -2.007923
H       0.362524   -1.601324   -1.526827
H      -2.274476   -0.802079   -0.050639
H      -1.104367   -1.833685    2.047264
H       0.321537   -3.709126    1.716146
H      -0.355986   -3.730240    0.068660
H       2.446045   -1.800889    1.774645
H       2.600814   -1.095597    0.146313
H       0.720582   -0.144973    2.050245
