15

C       0.024222    1.449765   -0.322578
C       0.064302   -0.010022    0.063121
O       1.059888   -0.584349    0.420965
C      -1.297819   -0.783223    0.033294
C      -1.715664   -1.041245    1.490045
O      -2.344895   -0.040871   -0.570981
C      -1.098403   -2.057455   -0.683983
N      -0.979121   -3.026690   -1.301625
H       0.994782    1.900830   -0.115151
H      -0.202963    1.549255   -1.390193
H      -0.773079    1.974126    0.211198
H      -1.884915   -0.082453    1.987645
H      -2.643980   -1.615164    1.508413
H      -0.929406   -1.587913    2.012032
H      -2.247434   -0.078031   -1.529082
