18

N       0.431302    0.639305   -0.860017
C      -0.049008    0.139048    0.306472
O       0.452013    0.324717    1.401461
C      -1.280257   -0.727011    0.142899
C      -2.376521   -0.655097    1.229834
C      -2.424392   -2.213772    1.285351
C      -1.281867   -2.289315    0.238065
C      -1.741837   -2.230942   -1.225931
O      -1.803173   -0.779639   -1.208406
H       1.213741    1.271345   -0.836368
H      -0.097475    0.501910   -1.705527
H      -1.997334   -0.200418    2.146134
H      -3.284278   -0.142479    0.905552
H      -2.149658   -2.621821    2.259658
H      -3.362931   -2.677313    0.969460
H      -0.398625   -2.879554    0.475008
H      -1.004478   -2.584435   -1.956970
H      -2.716778   -2.678868   -1.451859
