17

O      -0.242657    1.448818    0.012787
C      -0.041392    0.046261    0.003044
C      -1.418005   -0.609260    0.012111
C      -1.326640   -2.124582    0.002456
O      -2.673153   -2.645968    0.012031
C      -2.782981   -3.983048    0.006060
O      -1.873983   -4.766570   -0.006420
C      -4.272799   -4.360268    0.017658
O      -4.637703   -5.500860    0.014907
H       0.617894    1.877896    0.007897
H       0.519405   -0.272858   -0.890873
H       0.535841   -0.282836    0.882760
H      -1.965100   -0.276501    0.900361
H      -1.981549   -0.266256   -0.861844
H      -0.813156   -2.504880   -0.887110
H      -0.796611   -2.515161    0.877744
H      -4.965596   -3.494964    0.028630
