17

C       0.105583    1.566908   -0.320436
C       0.012542    0.093661   -0.010382
N       1.252979   -0.689487   -0.042548
C       0.539605   -0.542975    1.241402
C       1.210093    0.148457    2.349227
C       1.131484    0.016739    3.699439
N       1.981759    0.931221    4.309353
C       2.523328    1.557890    3.318852
O       2.112865    1.147483    2.095440
H       1.026122    1.993464    0.078977
H       0.094848    1.725370   -1.404109
H      -0.747070    2.105099    0.107225
H      -0.880803   -0.391408   -0.405332
H       1.097152   -1.617262   -0.426962
H      -0.030623   -1.396399    1.603391
H       0.529026   -0.668931    4.274010
H       3.253815    2.351037    3.341528
