17

C      -0.267755    1.515991    0.055817
C       0.103689    0.045301   -0.007895
C       1.215881   -0.450282   -0.973219
C       1.914447   -1.032328    0.262652
C       2.148334    0.041974    1.257392
N       0.799224   -0.536542    1.206435
C       2.501498   -2.328126    0.338919
C       3.009102   -3.418930    0.363028
H       0.605802    2.167518    0.152095
H      -0.798500    1.809198   -0.856280
H      -0.928968    1.704685    0.907829
H      -0.804942   -0.546876   -0.144855
H       0.870982   -1.210140   -1.674946
H       1.788981    0.305471   -1.518877
H       2.681036   -0.231360    2.162308
H       2.330349    1.057122    0.912150
H       3.454032   -4.382381    0.396480
