15

N       0.137829    1.424244    0.020167
C      -0.008246    0.025680    0.016332
C      -1.068286   -0.849029    0.001876
O      -2.370911   -0.443551   -0.013681
C      -3.353526   -1.383457   -0.026740
N      -4.553084   -0.992832   -0.041119
N      -0.663618   -2.148258    0.004843
C       0.656428   -2.090750    0.021326
N       1.098622   -0.812210    0.028594
H      -0.287035    1.846228   -0.799577
H      -0.304941    1.843731    0.831687
H      -2.970458   -2.404892   -0.022975
H      -5.171091   -1.802251   -0.049456
H       1.319127   -2.942202    0.028279
H       2.050994   -0.485929    0.040659
