13

N       0.033582    1.352709    0.159996
C      -0.026050   -0.012406    0.064415
C      -1.189239   -0.719433    0.042578
F      -2.357249   -0.078639    0.054363
C      -1.189623   -2.153896    0.000158
N      -2.238186   -2.885067   -0.023198
N       0.148372   -2.617574   -0.013248
N       1.281988   -1.905910   -0.010904
N       1.216021   -0.641132    0.028245
H       0.910529    1.758786   -0.127904
H      -0.794813    1.862358   -0.102086
H      -2.011784   -3.878998   -0.054691
H       0.312516   -3.614339   -0.046672
