19

C      -0.011640    1.477744   -0.229181
C       0.024960   -0.001365    0.078636
N       1.337056   -0.666033    0.063776
C       0.583158   -0.597455    1.324401
C       1.191441    0.207530    2.439187
O       1.987183   -0.675053    3.221106
C       2.637218   -0.015584    4.275166
C       3.397453   -0.992063    5.061775
N       4.003948   -1.736658    5.702367
H       0.863832    1.992602    0.172225
H      -0.021299    1.638939   -1.312316
H      -0.912550    1.942204    0.186348
H      -0.809528   -0.557472   -0.348294
H       1.276875   -1.595269   -0.342159
H       0.106739   -1.509839    1.679540
H       1.810608    1.019139    2.033008
H       0.404279    0.655886    3.068996
H       3.333134    0.756179    3.906378
H       1.921193    0.489568    4.945481
