16

O       0.540248   -0.220424   -0.282812
C       0.259590    0.942708   -0.375644
C       1.219161    2.073197   -0.009518
C       1.169781    3.188869   -1.040822
O       0.119934    3.690303   -1.378325
C       2.492536    3.617259   -1.644552
N       2.287234    4.677403   -2.593374
C       3.322182    5.373715   -3.127300
O       4.490975    5.144620   -2.896205
H      -0.730110    1.291823   -0.734286
H       0.856788    2.499420    0.936254
H       2.221696    1.670801    0.148577
H       3.177507    3.927042   -0.842607
H       2.966195    2.735169   -2.102982
H       1.327040    4.937462   -2.769162
H       2.978345    6.178616   -3.805247
