17

O      -0.001976    1.405825    0.057145
C       1.238196    2.050109   -0.030546
C       2.339422    1.605242   -0.939447
C       2.484937    1.536948    0.616765
C       2.510720   -0.008741    0.536207
C       1.174518   -0.783742    0.637455
C       0.086237    0.010044   -0.012358
C       1.029005   -0.715449   -0.918757
C       2.367114    0.058655   -0.999592
H       1.082893    3.121626    0.030999
H       2.806465    2.274242   -1.652748
H       3.081317    2.145248    1.286682
H       3.384258   -0.498199    0.962657
H       0.966808   -1.599454    1.320067
H      -0.910995   -0.409458    0.062477
H       0.691953   -1.470458   -1.619361
H       3.142655   -0.384808   -1.621180
