16

O      -0.065924   -0.003915   -0.114862
C      -0.007079    1.186449   -0.015742
C      -1.083029    2.307443    0.110145
C       0.004883    3.368669   -0.182948
O       0.511638    4.053881    0.980328
C       1.501125    3.042358    1.176768
C       2.853040    3.254265    0.436305
N       2.459259    2.207590   -0.549037
C       1.097348    2.219464   -0.093822
H      -1.848987    2.227286   -0.666274
H      -1.564085    2.393369    1.086945
H      -0.149250    4.027117   -1.039164
H       1.531534    2.648605    2.193837
H       2.930611    4.274478    0.043630
H       3.762020    3.003211    0.991733
H       2.628515    2.390514   -1.531867
