15

C       0.249928    1.284991    0.229579
N      -0.195924   -0.039773   -0.165256
C       0.475265   -0.744119   -1.134934
N       0.483477   -2.051453   -1.248560
C       1.219154   -2.302915   -2.397517
C       1.660076   -1.136710   -2.966332
N       1.180550   -0.137218   -2.143633
C       1.463950   -3.616856   -2.875681
N       1.675672   -4.680332   -3.282047
H       1.307138    1.323395    0.532383
H       0.096380    2.002034   -0.585925
H      -0.362118    1.624563    1.066790
H      -0.488520   -0.646808    0.586113
H       2.255883   -0.933894   -3.839042
H       1.299157    0.850863   -2.287375
