16

C      -0.095692    1.420387    0.154941
N       0.031334   -0.004088   -0.055039
C       0.636416   -0.560600   -1.110845
C       1.253647   -0.029867   -2.206624
C       1.758523   -1.088315   -3.080942
O       2.352662   -0.950862   -4.129257
C       1.407725   -2.444629   -2.441260
C       0.683663   -2.062031   -1.168952
O       0.206256   -2.771538   -0.313596
H       0.887785    1.901490    0.226490
H      -0.648888    1.894130   -0.665441
H      -0.636740    1.600094    1.085104
H      -0.340365   -0.657811    0.618893
H       1.379337    1.018073   -2.443467
H       0.774079   -3.047208   -3.099993
H       2.306036   -3.034412   -2.232213
