20

C      -0.095768    1.507730    0.132818
N      -0.051238    0.063862    0.110591
C      -1.264387   -0.678413    0.529480
C      -0.361109   -1.626398    1.317592
C       0.777259   -0.623815    1.125228
C      -0.736831   -2.487543    2.489930
O      -2.079539   -2.592945    2.858311
C      -0.313576   -3.118693    1.178558
O      -1.350612   -3.682805    0.412710
H       0.888228    1.914080   -0.125460
H      -0.811822    1.867607   -0.613842
H      -0.389952    1.923150    1.116557
H      -1.936019   -0.103731    1.187680
H      -1.844353   -1.101992   -0.296445
H       1.736051   -1.002112    0.749953
H       0.962386   -0.019457    2.029490
H      -0.074813   -2.536735    3.350403
H      -2.533585   -2.972765    2.092876
H       0.655288   -3.608374    1.086576
H      -1.424148   -4.612522    0.656806
