20

C      -0.152707    1.612376    0.303565
C      -0.149927    0.081651    0.267136
C      -1.480262   -0.549427   -0.216865
C      -1.805924   -0.188436   -1.673610
C      -1.454989   -2.039869   -0.031727
C      -1.341163   -3.107802   -0.895157
N      -1.346526   -4.270684   -0.182712
N      -1.458831   -3.993309    1.082110
N      -1.522847   -2.648849    1.180903
H       0.785669    1.988629    0.721753
H      -0.263605    2.047867   -0.693690
H      -0.969927    1.993541    0.926635
H       0.660966   -0.279395   -0.377669
H       0.073657   -0.298863    1.271297
H      -2.283699   -0.146921    0.418105
H      -2.734984   -0.665463   -1.997262
H      -1.922746    0.890989   -1.793305
H      -1.004827   -0.515566   -2.345154
H      -1.261214   -3.108578   -1.969665
H      -1.622708   -2.229556    2.091829
