21

O       0.132325    1.414144    0.098370
C       0.080146   -0.003325    0.032035
C      -1.355099   -0.536231    0.032561
C      -1.433938   -2.056943    0.017908
C      -2.864054   -2.603771    0.114357
C      -2.843144   -4.118076   -0.111203
O      -2.161413   -4.432329   -1.318623
C      -0.861877   -3.908505   -1.309043
O      -0.837103   -2.509880   -1.201649
H      -0.221528    1.758522   -0.727666
H       0.619532   -0.389600   -0.842947
H       0.608967   -0.359674    0.923649
H      -1.875778   -0.157251    0.919486
H      -1.889933   -0.152803   -0.846678
H      -0.845739   -2.461697    0.863043
H      -3.298335   -2.369053    1.092687
H      -3.481134   -2.129395   -0.656830
H      -2.347258   -4.619548    0.737946
H      -3.851232   -4.529640   -0.204965
H      -0.284143   -4.356161   -0.476225
H      -0.404215   -4.164880   -2.266624
