18

C      -0.030046    1.534011   -0.002182
C       1.399559    2.101652    0.009534
N       2.207167    1.670018    1.156056
C       1.955747    0.368156    1.611457
C       2.569402   -0.353665    2.591638
O       1.984748   -1.586819    2.695503
C       1.004432   -1.644280    1.760257
C       0.928830   -0.480573    1.062189
C       0.006790   -0.006441   -0.022384
H      -0.567066    1.880498    0.889483
H      -0.567897    1.914364   -0.877049
H       1.907178    1.790195   -0.914950
H       1.382456    3.194968    0.003276
H       2.233744    2.353599    1.898628
H       3.370048   -0.148641    3.281348
H       0.447990   -2.566858    1.720062
H      -0.998863   -0.421877    0.100221
H       0.361842   -0.340198   -1.007340
