14

C      -0.031560    1.533654    0.052119
C      -0.004289    0.034689   -0.016627
C      -0.025189   -0.668777   -1.178714
C       0.001413   -2.117520   -1.228187
O      -0.013020   -2.817870   -2.203207
O       0.051914   -2.754852    0.029336
C       0.072755   -2.062714    1.179277
C       0.046889   -0.718293    1.201262
F       0.068784   -0.057262    2.365865
H       0.855259    1.911374    0.571819
H      -0.069995    1.971445   -0.946468
H      -0.899806    1.877061    0.624334
H      -0.063450   -0.173104   -2.140959
H       0.111572   -2.683933    2.065087
