15

N      -0.037106    1.497562   -0.051335
C       0.029738    0.051248   -0.052446
C       0.146598   -0.528168    1.391999
N      -1.318209   -0.726182    1.416536
C      -1.403072   -0.609154   -0.049648
C      -2.503297    0.202376   -0.568098
N      -3.359962    0.835735   -1.015117
C       0.957088   -0.512711   -1.041218
N       1.702037   -0.922963   -1.825023
H       0.880862    1.894250    0.125785
H      -0.354930    1.847756   -0.950848
H       0.743769   -1.446710    1.424709
H       0.514083    0.183656    2.135835
H      -1.644175   -1.608346    1.792680
H      -1.386702   -1.562671   -0.593169
