13

N      -0.148458    1.014935    1.050944
C       0.021085    0.127864    0.155011
N      -1.177749   -0.516867   -0.254325
N      -1.585448   -1.293900   -1.265391
N      -0.860122   -1.782983   -2.163882
C       0.547368   -1.633211   -2.287255
N       1.122954   -2.158948   -3.300834
C       1.481276   -0.954463   -1.348303
N       1.279629   -0.214082   -0.333048
H       0.761269    1.382981    1.326642
H      -1.968280   -0.201228    0.292993
H       0.408406   -2.599003   -3.889892
H       2.518497   -1.132051   -1.633409
