19

C      -0.135889    1.593683   -0.038356
C       0.031489    0.084886    0.010893
C       1.195728   -0.590517   -0.762558
O       2.354193    0.101103   -0.264328
C       2.207643   -0.139852    1.158174
C       2.995580   -1.420453    1.420707
O       2.281117   -2.399808    0.645218
C       1.078798   -1.784973    0.250598
C       0.728458   -0.612964    1.210138
H       0.829096    2.097584    0.055111
H      -0.586396    1.905584   -0.986860
H      -0.789433    1.943723    0.767887
H      -0.913767   -0.426198   -0.201347
H       1.250272   -0.684408   -1.846142
H       2.501262    0.738291    1.734113
H       4.022436   -1.341062    1.052436
H       3.009299   -1.711124    2.481975
H       0.314250   -2.530328    0.037700
H       0.271329   -0.751286    2.188981
