15

C      -0.018784    1.454124   -0.020062
N      -0.013691   -0.010380   -0.003400
C      -0.058154   -0.653135    1.218316
O      -0.101283   -0.092407    2.289493
C       0.035925   -0.680283   -1.234654
C       0.041655   -2.195153   -1.220787
N       0.072984    0.040242   -2.286806
H       0.882601    1.824932   -0.511753
H      -0.881793    1.817924   -0.580918
H      -0.060549    1.788486    1.014445
H      -0.050846   -1.749365    1.132195
H      -0.859100   -2.603979   -0.752547
H       0.083196   -2.556136   -2.249757
H       0.906503   -2.596834   -0.683762
H       0.107107   -0.546992   -3.117647
