18

O       0.026514    0.049645   -0.372949
C       0.017229    1.216529   -0.016797
C      -1.240957    1.926557    0.279501
C      -1.301202    3.263349    0.353635
C      -0.089841    4.146784    0.246956
C       1.183784    3.406274    0.674798
C       1.286909    2.030281    0.046976
C       2.556017    1.255861    0.118983
N       2.172910    1.894828   -1.140413
H      -2.129952    1.305752    0.324562
H      -2.268156    3.749028    0.467193
H       0.000632    4.498221   -0.791425
H      -0.229629    5.047985    0.853871
H       2.075565    3.984576    0.418555
H       1.167727    3.291147    1.766209
H       3.407417    1.705917    0.622966
H       2.467835    0.176864    0.196083
H       1.773280    1.179287   -1.747349
