17

O       0.080587    0.034958   -0.231204
C       0.022037    1.229202   -0.100337
N      -1.193918    1.983333   -0.072297
C      -1.356925    2.700118    1.227736
C      -0.803671    3.414028    0.060405
C       0.709132    3.578882   -0.069553
C       1.214455    2.150128    0.011168
C       2.368253    1.655552    0.823038
N       2.466441    1.734786   -0.631094
H      -2.391495    2.841011    1.522549
H      -0.683608    2.428723    2.037264
H      -1.443210    4.103106   -0.481419
H       0.959048    4.010714   -1.043248
H       1.127461    4.232378    0.701213
H       2.965389    2.382865    1.366930
H       2.270706    0.677915    1.286962
H       2.316623    0.803142   -1.021280
