16

C      -0.249649    1.566740    0.129957
C      -0.049624    0.088566   -0.100046
C       0.707365   -0.574703   -1.211834
C       1.754467    0.094337   -2.076873
O       2.087990    1.438956   -1.737532
C       2.914941    0.376812   -1.217293
C       2.475325    0.068717    0.214336
O       3.074877    0.336643    1.219374
N       1.227051   -0.620849    0.163611
H       0.580936    2.165963   -0.233978
H      -1.162462    1.886762   -0.383752
H      -0.389048    1.752512    1.199855
H      -0.886659   -0.506697    0.265268
H       0.332167   -1.518921   -1.601912
H       1.836657   -0.163200   -3.127980
H       3.959479    0.395026   -1.510013
