21

C      -0.239497    1.334386   -0.336369
C       1.172681    1.117481    0.148465
C       0.214965   -0.047425    0.060870
C      -0.295676   -0.722392    1.296647
C      -0.691864    0.030483    2.622708
C      -1.396915   -1.336921    2.917994
C      -1.731436   -1.365548    1.389383
C      -0.179866   -2.272911    2.951429
C       0.537717   -1.874513    1.899347
H      -0.924332    1.855942    0.323412
H      -0.397520    1.538051   -1.389663
H       1.982255    1.176538   -0.570549
H       1.427501    1.486811    1.136063
H       0.390632   -0.734481   -0.764512
H       0.117744    0.332069    3.291721
H      -1.397071    0.853520    2.464817
H      -2.162415   -1.440398    3.685951
H      -2.528428   -0.671845    1.101466
H      -1.875219   -2.343371    0.923334
H       0.012452   -3.053923    3.673408
H       1.483246   -2.231631    1.515496
