13

C      -0.045002    1.525758    0.096257
O       1.223255    1.933286   -0.451537
C       2.128964    0.834402   -0.626015
C       1.272945   -0.372662   -0.401784
N       1.412662   -1.665210   -0.491419
O       0.159670   -2.164126   -0.105507
C      -0.665894   -1.136489    0.196467
C      -0.011696    0.034565    0.025580
H      -0.144273    1.897420    1.126381
H      -0.839641    1.982786   -0.504901
H       2.556882    0.883884   -1.633405
H       2.952304    0.893639    0.099854
H      -1.659808   -1.420099    0.504664
