15

O       0.043046    0.012432   -0.156465
C       0.013878    1.193113    0.024643
C      -1.085644    2.278933    0.037502
C      -1.288094    2.872706    1.439871
C       0.062398    3.147189    2.063060
C       1.176996    2.887834    1.378555
C       1.025643    2.359218   -0.032836
N      -0.084643    3.150515   -0.695493
H      -2.022617    2.074510   -0.484992
H      -1.886006    3.791421    1.377288
H      -1.860196    2.167722    2.057860
H       0.093760    3.549641    3.071086
H       2.168696    3.027560    1.793819
H       1.956688    2.259308   -0.590525
H      -0.108188    2.883518   -1.679689
