21

C       0.573476    0.227671    1.216093
O      -0.054910    0.059933   -0.041266
C      -1.214294   -0.732951   -0.015461
C      -2.429631   -0.075373    0.609401
C      -2.805298    1.239436   -0.107788
C      -3.943454    1.912733    0.503335
C      -4.884539    2.444573    1.029695
C      -1.378937   -1.592394   -1.233191
C      -1.017440   -2.224741    0.097464
H       1.505661    0.767210    1.032675
H      -0.037586    0.815135    1.915300
H       0.804757   -0.738815    1.685144
H      -3.275230   -0.769241    0.570602
H      -2.252290    0.132101    1.670855
H      -1.933045    1.903088   -0.110923
H      -3.023538    1.025524   -1.161774
H      -5.714244    2.926962    1.483348
H      -2.378086   -1.745284   -1.626910
H      -0.596453   -1.528881   -1.980067
H       0.000122   -2.581421    0.210620
H      -1.765747   -2.814082    0.616424
