20

O       0.147827    1.366027    0.778901
C       0.187663    0.095591    0.137048
C      -1.197568   -0.500654    0.027384
C      -1.532057   -1.926743   -0.228213
C      -0.455191   -2.990613   -0.089158
O       0.569280   -2.756387   -1.049674
C       0.025178   -2.890407    1.385876
C      -0.961886   -1.922997    2.085306
N      -1.856085   -1.315347    1.074669
H      -0.283985    1.249921    1.631360
H       0.575093    0.281433   -0.869111
H       0.898479   -0.575987    0.629109
H      -1.893539    0.225989   -0.390956
H      -2.370967   -2.158934   -0.878667
H      -0.912246   -3.973379   -0.272665
H       1.186665   -3.494007   -1.014827
H       0.031479   -3.869756    1.872554
H       1.052758   -2.517944    1.397451
H      -1.603995   -2.461853    2.788644
H      -0.446325   -1.145231    2.659782
