15

N      -0.009886   -1.141838   -0.053756
C      -0.000607    0.014096   -0.023739
C       0.013972    1.455347    0.016374
C      -0.318265    2.282196    1.309285
C       0.360650    3.388601    0.466090
C       1.333525    2.303463   -0.055474
O      -0.547277    3.577099   -0.629848
C      -0.846766    2.221506   -1.013470
H      -1.370310    2.416034    1.566503
H       0.267146    1.956962    2.169193
H       0.674495    4.351629    0.860958
H       2.072551    1.980190    0.677505
H       1.782346    2.456634   -1.038312
H      -0.538949    2.034962   -2.047425
H      -1.917228    2.017202   -0.908668
