16

O       0.022529   -0.005957   -0.024790
C      -0.013748    1.192600    0.001993
C      -1.257240    2.105752    0.024979
C      -0.598721    3.506177    0.067620
C       0.037596    3.753843    1.448433
C       1.222083    2.773497    1.407671
O       1.992754    2.504414    2.284589
C       1.179371    2.180304   -0.016914
N       0.635728    3.347380   -0.751923
H      -1.838410    1.966031   -0.892924
H      -1.907168    1.853323    0.867913
H      -1.230722    4.318239   -0.290053
H       0.415444    4.776604    1.533916
H      -0.612040    3.550747    2.302986
H       2.120612    1.769950   -0.372548
H       0.400285    3.083721   -1.707071
