14

C      -0.019295    1.556231    0.031800
C      -0.037840    0.023558   -0.004276
C      -1.461390   -0.544467    0.035068
C       0.703108   -0.487036   -1.231971
F       1.973520   -0.049014   -1.262254
F       0.749756   -1.830071   -1.260045
F       0.118212   -0.086584   -2.374432
H       1.002459    1.942774    0.014269
H      -0.556803    1.971248   -0.826246
H      -0.506326    1.914781    0.942572
H       0.528766   -0.364091    0.850973
H      -2.042862   -0.194351   -0.823248
H      -1.454931   -1.636920    0.020498
H      -1.969932   -0.216331    0.945548
