17

C       0.008881    1.550245   -0.061838
C       0.029855    0.051975   -0.071580
C       0.578625   -0.913855   -1.175118
C       0.888505   -1.895144   -0.053300
C       0.556139   -0.889707    1.072143
O      -0.785466   -1.175157    1.542276
C      -1.201697   -0.889797    0.187244
C      -0.479189   -1.892909   -0.754762
O      -0.990249   -2.940238   -1.482414
H       1.022161    1.963085   -0.119018
H      -0.559520    1.944221   -0.911745
H      -0.457179    1.919416    0.858216
H       1.070058   -0.747561   -2.122721
H       1.536727   -2.761036   -0.064368
H       1.264266   -0.648613    1.864919
H      -2.258588   -0.651083    0.069459
H      -1.167969   -3.671037   -0.878638
