20

O      -0.032371    1.392240   -0.229768
C       0.048120   -0.021185   -0.053524
C       0.766796   -0.484105    1.245909
C      -0.317333   -1.057441    2.192824
C      -0.958932    0.034071    3.073832
C      -1.903413    0.765478    2.095749
N      -2.305069   -0.244711    1.084442
C      -1.349479   -0.617744    0.024822
C      -1.480686   -1.444649    1.255855
H       0.862258    1.726528   -0.347094
H       0.550903   -0.459617   -0.928548
H       1.485763   -1.270580    0.994340
H       1.331381    0.338273    1.699422
H       0.063577   -1.893720    2.783005
H      -1.539060   -0.432372    3.877608
H      -0.222176    0.696138    3.539242
H      -2.809877    1.121432    2.594066
H      -1.420758    1.615956    1.612778
H      -1.831455   -0.876282   -0.914433
H      -1.970207   -2.412655    1.307793
