25

C       0.320001    1.723895   -0.033283
C       0.099642    0.204452   -0.013410
C       0.769139   -0.503101   -1.208207
C       2.245045   -0.734444   -0.803154
C       2.820412   -2.032345   -1.374060
O       2.978742    0.382371   -1.331040
C       2.230430   -0.706008    0.757460
C       0.755348   -0.531600    1.185106
C       0.569555    0.099054    2.564241
H       1.382700    1.978234   -0.065076
H      -0.142669    2.157745   -0.926142
H      -0.130350    2.208406    0.838630
H      -0.981273    0.018600   -0.014931
H       0.286851   -1.472329   -1.377626
H       0.716777    0.062410   -2.142240
H       2.760785   -2.030262   -2.466715
H       3.874011   -2.149766   -1.091022
H       2.277880   -2.905377   -0.996512
H       3.894263    0.289782   -1.045812
H       2.678817   -1.603252    1.196458
H       2.826537    0.149234    1.094337
H       0.301302   -1.532576    1.213731
H       1.037956    1.087091    2.622109
H      -0.491590    0.216318    2.810753
H       1.021973   -0.524542    3.343082
