17

O       0.008396   -0.031830   -0.019935
C      -0.013906    1.172015   -0.003282
C      -1.286645    2.022119    0.042442
C      -0.850745    3.499634    0.017993
O      -0.069016    3.742954    1.206980
C       1.129597    2.974901    1.246003
C       1.236628    2.064801   -0.010323
C       1.107456    2.964076   -1.218884
C       0.012171    3.726157   -1.204713
H      -1.938031    1.767573   -0.799313
H      -1.827393    1.790867    0.966267
H      -1.699650    4.181033    0.081568
H       1.992867    3.651897    1.279801
H       1.131600    2.366687    2.159721
H       2.139431    1.455141    0.008609
H       1.864079    2.975345   -1.994539
H      -0.248219    4.452576   -1.965324
