14

N       0.080911    1.164601   -0.813203
C       0.096079    0.058331   -0.215583
N       0.940728   -0.710275    0.555792
C       0.065555   -1.887931    0.617631
C      -1.029381   -1.020397   -0.079919
C      -2.137605   -0.510195    0.853286
O      -2.157889   -0.737259    2.030111
C      -1.574925   -1.511319   -1.329759
N      -2.037291   -1.914748   -2.309272
H       0.967570    1.665011   -0.746437
H       1.945466   -0.663112    0.625591
H       0.394275   -2.737299    0.013082
H      -0.199412   -2.199123    1.629303
H      -2.897499    0.115494    0.347375
