19

O       0.100105    1.294455   -0.231110
C      -0.059971   -0.086811   -0.082394
C       0.417554   -0.685820    1.248867
O      -0.380428   -0.032773    2.253742
C      -0.932903   -1.172469    1.569703
C      -1.514951   -0.662580    0.244720
C      -2.677645    0.286631    0.302819
C      -3.467204    0.597837   -0.942443
C      -4.090496   -0.229703    0.152701
H      -0.128693    1.683932    0.622303
H       0.377193   -0.562095   -0.963519
H       1.396877   -1.038365    1.551407
H      -1.241538   -2.007842    2.187407
H      -1.733672   -1.497077   -0.431043
H      -2.548379    1.105523    1.003284
H      -3.817229    1.613458   -1.088221
H      -3.182531    0.093356   -1.860058
H      -4.228282   -1.291090   -0.027644
H      -4.867733    0.219120    0.761175
