18

C       0.069414    1.539839   -0.054064
C       0.072369    0.084708   -0.019451
C       0.079460   -1.119646    0.009797
C       0.057444   -2.565769    0.043301
C       0.267310   -3.278716    1.389372
N      -0.881461   -2.907968    2.246301
C      -1.014892   -4.020108    1.271764
C      -1.366615   -3.312745   -0.044656
O      -2.520445   -2.539015   -0.053109
H       1.012942    1.932653   -0.449517
H      -0.738360    1.919821   -0.689603
H      -0.071362    1.962263    0.947163
H       0.722747   -2.987379   -0.717369
H       1.209580   -3.586958    1.824417
H      -0.730586   -3.317737    3.166259
H      -1.286502   -5.016849    1.596695
H      -1.407344   -3.978964   -0.908278
H      -2.488357   -2.014407    0.759354
