19

C      -0.261247    1.363383   -0.102438
O       0.173483    0.020155    0.086073
C       0.773437   -0.519390   -1.021672
C      -0.036636   -1.074501   -2.194583
C       0.098900   -0.676611   -3.650972
C       0.866643   -2.010347   -1.447529
C       2.327913   -1.832669   -1.885271
C       2.226218   -0.364361   -1.386628
O       3.041925    0.486024   -1.164167
H       0.583360    2.022125   -0.334777
H      -1.004629    1.431443   -0.908800
H      -0.719919    1.679084    0.836645
H      -1.070660   -1.179990   -1.867913
H       1.138044   -0.522782   -3.951215
H      -0.325829   -1.447690   -4.303290
H      -0.438952    0.256689   -3.846287
H       0.491874   -2.854901   -0.884437
H       3.041012   -2.381359   -1.262986
H       2.568211   -2.002116   -2.937475
