16

O       0.071017    1.442123    0.022233
C       0.043247    0.024989    0.014833
C       0.628256   -0.589025    1.293811
C      -0.577756   -0.726390    2.235358
O      -0.567693   -0.848823    3.437418
N      -1.690074   -0.687241    1.430745
C      -1.423281   -0.514870    0.024777
C      -2.389281    0.435372   -0.654642
O      -3.332313    0.935104   -0.099054
H      -0.315522    1.754654    0.849398
H       0.571159   -0.270423   -0.893230
H       1.043217   -1.586214    1.109638
H       1.413047    0.028726    1.733146
H      -2.624642   -0.675644    1.808342
H      -1.467999   -1.467924   -0.532315
H      -2.173301    0.615091   -1.728677
