20

N      -0.205218    1.290634   -0.151277
C      -0.002719   -0.049944    0.009127
O       1.108460   -0.532966    0.115843
C      -1.277162   -0.887817    0.038280
C      -0.972928   -2.377900   -0.011957
O      -2.201866   -3.073911    0.069241
C      -2.061215   -4.482674    0.026102
C      -3.467021   -5.059751   -0.025591
O      -4.172965   -4.591091   -1.157514
H       0.594234    1.900848   -0.105035
H      -1.123823    1.697444   -0.167247
H      -1.834659   -0.661517    0.955807
H      -1.930091   -0.608873   -0.797029
H      -0.442814   -2.630849   -0.942261
H      -0.309925   -2.654689    0.819135
H      -1.498325   -4.781121   -0.872652
H      -1.516643   -4.851259    0.910679
H      -3.417583   -6.151062   -0.099199
H      -3.992396   -4.807232    0.909625
H      -4.036761   -3.636258   -1.166269
