20

C       0.199299    1.444961    0.127745
C       0.347366   -0.068288   -0.046724
C       0.143369   -0.505659   -1.502608
N       0.264128   -1.939825   -1.685574
C       1.289663   -2.527857   -2.336823
O       2.223425   -1.960856   -2.880664
C       1.172495   -4.071160   -2.339519
C       2.268698   -4.799483   -3.067648
O       0.245817   -4.613584   -1.779521
H       0.933055    1.986898   -0.478557
H      -0.797141    1.785771   -0.174921
H       0.347670    1.737931    1.170992
H       1.341810   -0.392502    0.280978
H      -0.376733   -0.589911    0.592546
H      -0.842900   -0.178016   -1.856249
H       0.897099   -0.047393   -2.148647
H      -0.411778   -2.572633   -1.280034
H       3.238964   -4.530966   -2.638308
H       2.104815   -5.875566   -3.010345
H       2.302119   -4.468005   -4.110389
