17

N      -0.021509    1.329049   -0.245335
C       0.053026    0.090291    0.042631
N       1.205567   -0.661555    0.180091
C       1.243440   -1.914156    0.928753
C      -0.053700   -2.668579    0.683486
O      -1.154594   -1.840252    1.000539
C      -1.247448   -0.731939    0.106041
C      -2.405187    0.064152    0.487889
C      -3.392160    0.672245    0.795694
H       0.907115    1.752406   -0.320390
H       2.051299   -0.109349    0.215932
H       2.098110   -2.509082    0.587787
H       1.359040   -1.738999    2.008792
H      -0.107607   -3.000712   -0.366293
H      -0.120016   -3.545405    1.332215
H      -1.405347   -1.119686   -0.917543
H      -4.251414    1.231782    1.071406
