19

O       0.496123    1.197247   -0.068096
C       0.169066   -0.158114   -0.044225
C      -1.338064   -0.372484   -0.053512
O      -2.065597    0.595588   -0.146923
C      -1.853046   -1.789026    0.088230
C      -2.072483   -2.154004    1.599839
C      -3.358598   -2.943484    1.577567
C      -3.971358   -2.884639    0.398417
C      -3.220563   -2.040417   -0.600519
H      -0.356692    1.655580   -0.145697
H       0.582911   -0.693409   -0.917605
H       0.590591   -0.657018    0.844283
H      -1.101232   -2.475098   -0.315329
H      -1.225673   -2.716660    2.007335
H      -2.179625   -1.255238    2.222843
H      -3.732803   -3.453068    2.458429
H      -4.924536   -3.345723    0.164931
H      -3.735910   -1.089272   -0.782212
H      -3.101853   -2.529961   -1.573467
