23

C      -0.103788    1.185467    0.053259
O      -0.427189   -0.176691   -0.116624
C       0.235386   -0.816373   -1.202102
C      -0.360812   -0.278369   -2.510549
C       1.779467   -1.076023   -0.986550
C       1.360014   -2.007826    0.194248
C       0.386241   -2.349900   -0.976538
C       1.667988   -2.346997   -1.887615
C       1.712180   -2.320434   -3.417021
H       0.973060    1.334806    0.221505
H      -0.406889    1.801396   -0.806022
H      -0.646797    1.534486    0.935374
H       0.224181    0.541847   -2.939428
H      -0.466218   -1.048455   -3.272772
H      -1.362949    0.100976   -2.292643
H       2.586474   -0.339602   -0.995719
H       2.079572   -2.786046    0.458417
H       0.921359   -1.537188    1.068884
H      -0.420566   -3.086254   -0.973113
H       2.357027   -3.128517   -1.551953
H       1.499266   -1.346712   -3.857152
H       2.715413   -2.606701   -3.750100
H       1.013877   -3.045803   -3.850473
