20

C      -0.041496    1.461763    0.085710
C       0.045047   -0.030324   -0.076618
C      -0.391192   -0.735051   -1.349864
C      -0.203428   -2.156090   -0.853783
C       1.156603   -2.257242   -0.070206
C       0.407884   -3.144998    0.969381
C      -0.767099   -2.210770    0.599273
N      -0.326593   -0.868686    1.105339
C       1.077982   -0.877430    0.586960
H       0.584979    1.972642   -0.653924
H      -1.071631    1.811057   -0.045631
H       0.289020    1.762005    1.083352
H      -1.430230   -0.509684   -1.617698
H       0.249677   -0.481791   -2.201879
H      -0.443086   -2.991051   -1.508976
H       2.091775   -2.556215   -0.542749
H       0.256742   -4.169982    0.620910
H       0.755795   -3.138163    2.005377
H      -1.807368   -2.431339    0.836971
H       1.858299   -0.484433    1.230034
