19

C       0.232394    1.297068   -0.197214
C       0.260022   -0.212387   -0.200440
O       1.021923   -0.896730    0.433925
O      -0.707110   -0.699011   -1.014033
C      -0.813321   -2.140849   -1.122154
C      -0.159001   -2.605990   -2.394213
O      -0.762884   -2.108861   -3.557844
C       1.329382   -2.864656   -2.417651
C       0.341143   -4.012751   -2.492089
H       1.008200    1.672945    0.468392
H       0.393598    1.677453   -1.209937
H      -0.748336    1.652813    0.130646
H      -0.359416   -2.600172   -0.243281
H      -1.886913   -2.344496   -1.149643
H      -0.698900   -1.147526   -3.517423
H       1.848266   -2.603576   -3.332778
H       1.891147   -2.718320   -1.502437
H       0.236020   -4.666771   -1.633350
H       0.207592   -4.495385   -3.453182
