17

C       0.010934    1.496956   -0.024197
C      -0.006475    0.001911   -0.095189
C       0.576279   -0.934488   -1.162661
C       0.054774   -1.850822   -0.058966
N       0.567804   -0.897827    1.048656
C      -0.801690   -0.941301    1.711093
C      -1.205840   -0.974068    0.239309
C      -2.508304   -1.028043   -0.381366
N      -3.549665   -1.060111   -0.884643
H       1.042580    1.861026   -0.055348
H      -0.532089    1.925342   -0.872612
H      -0.452976    1.862338    0.897184
H       0.061493   -0.970550   -2.125292
H       1.662550   -0.900731   -1.277829
H       0.126926   -2.931776    0.063486
H      -0.973008   -1.846888    2.299530
H      -1.046961   -0.048652    2.292280
