16

N       0.127952    1.107695    0.628871
C       0.075113   -0.032810   -0.109039
O       0.935480   -0.396278   -0.882403
C      -1.234094   -0.819824    0.046036
N      -1.071040   -2.294238    0.156050
C      -2.044769   -2.372941    1.281991
C      -1.977490   -0.865748    1.364603
N      -2.273020    0.055256    2.178172
O      -2.913140   -0.446321    3.320642
H       0.969888    1.659011    0.588529
H      -0.548246    1.283494    1.357169
H      -1.894054   -0.496892   -0.774932
H      -1.329072   -2.809151   -0.676323
H      -3.048979   -2.737280    1.023318
H      -1.685571   -2.926568    2.155795
H      -3.075912    0.350577    3.837255
