16

O      -0.267396    0.037596   -0.011073
C       0.001931    1.210010    0.021232
C       1.383192    1.786190   -0.198563
C       1.392258    2.863444   -1.282713
C       0.827344    4.283267   -0.940218
N       2.069133    4.468225   -0.068984
C       2.624027    3.822151   -1.337508
C       1.711848    4.818108   -2.091787
O       1.741089    5.658675   -2.933564
H      -0.785867    1.971531    0.231126
H       1.716875    2.235287    0.744360
H       2.060241    0.967599   -0.459566
H       1.077980    2.470166   -2.252648
H      -0.165564    4.570468   -0.599991
H       2.335861    5.454382   -0.007779
H       3.677806    3.573088   -1.446683
