15

C      -0.091352    1.434722    0.009619
O      -0.028322    0.001668    0.005327
C      -1.167312   -0.682974    0.011702
C      -1.187287   -2.049313    0.007906
C      -2.458895   -2.663453    0.015646
C      -3.621297   -1.945216    0.026326
C      -3.611620   -0.514529    0.029971
O      -4.505222    0.282225    0.039562
O      -2.270098    0.050076    0.021870
H       0.947170    1.764256    0.003112
H      -0.612408    1.806187   -0.876173
H      -0.599750    1.801428    0.904694
H      -0.260772   -2.602789   -0.000493
H      -2.509806   -3.748187    0.013073
H      -4.595067   -2.415525    0.032470
