18

O       0.839739    0.977778   -0.243709
C       0.304516   -0.278654    0.060453
C      -0.341944   -0.572279    1.448026
C      -1.456964    0.450401    1.138689
C      -1.228698   -0.436876   -0.121042
O      -1.130256   -1.623521    0.775416
C      -2.014568   -0.547217   -1.374243
C      -3.441631   -0.138435   -1.398722
N      -2.426060    0.685152   -2.070739
H       1.781572    0.966480   -0.048146
H       0.882981   -1.118006   -0.340229
H       0.118537   -0.825653    2.402636
H      -2.397270    0.274056    1.662542
H      -1.174256    1.502259    1.080309
H      -1.682316   -1.341510   -2.039237
H      -4.131059   -0.647392   -2.065756
H      -3.882545    0.220015   -0.472870
H      -2.194854    1.492464   -1.495378
