17

C      -0.145699    1.460243   -0.003706
C       0.116633   -0.018567    0.035813
O      -0.663337   -0.786421    0.950529
C       0.776480   -0.766189    1.121145
C       1.443193   -1.954870    0.511861
C       1.219804   -1.987146   -0.801794
C       0.427950   -0.772271   -1.280516
C      -0.758171   -1.101856   -2.062042
C      -1.734057   -1.364678   -2.712032
H       0.695143    1.997113   -0.455260
H      -1.040561    1.669747   -0.599710
H      -0.308929    1.845418    1.005568
H       1.125368   -0.305867    2.040892
H       1.991777   -2.693827    1.082467
H       1.517172   -2.771410   -1.487101
H       1.080784   -0.135263   -1.896963
H      -2.601330   -1.602122   -3.276757
