25

C      -0.096062    1.501957    0.037696
C      -0.006371   -0.019536    0.074190
C       1.065438   -0.621064   -0.892228
C       1.868178   -1.147647    0.312087
C       3.372345   -1.089657    0.331737
C       0.792310   -0.576851    1.259788
C       1.018682   -2.071518    1.164938
C      -0.004242   -3.034143    0.582870
C       1.708147   -2.659701    2.389246
H       0.893567    1.957627    0.157526
H      -0.512999    1.849422   -0.914144
H      -0.735729    1.881195    0.842754
H      -1.012132   -0.442578   -0.034606
H       0.730542   -1.357748   -1.630034
H       1.607487    0.167130   -1.424030
H       3.730075   -0.086403    0.071589
H       3.795204   -1.350351    1.304763
H       3.795694   -1.784808   -0.405172
H       0.919822   -0.059459    2.206784
H      -0.516077   -2.644729   -0.298896
H       0.478039   -3.975526    0.293380
H      -0.771341   -3.276959    1.327977
H       0.960793   -2.979819    3.124345
H       2.309466   -3.538576    2.127880
H       2.364547   -1.939764    2.885214
