18

C      -0.556736    1.330275    0.224078
C       0.117770   -0.008038   -0.020113
O       0.587171   -0.505628    1.219536
C       1.233315   -1.747376    1.108434
C       1.672777   -2.153420    2.471963
C       1.581274   -1.605669    3.706401
N       2.187096   -2.455182    4.629992
C       2.602466   -3.447861    3.919145
O       2.331636   -3.347018    2.592644
H       0.150101    2.042101    0.659327
H      -0.931848    1.743400   -0.716813
H      -1.397755    1.215629    0.913495
H      -0.589438   -0.724559   -0.470532
H       0.958916    0.102230   -0.724877
H       0.559725   -2.512375    0.681626
H       2.103656   -1.686605    0.430246
H       1.128073   -0.672079    3.993035
H       3.128774   -4.333710    4.237409
