14

O      -0.207233    0.026479    0.185012
C      -0.049990    1.212415    0.114650
N       1.177550    1.871352    0.011577
C       1.221593    3.341144   -0.104962
C       2.700756    3.716477    0.082750
C       3.462702    2.415340   -0.108014
O       4.639442    2.261521   -0.265789
C       2.437001    1.257091   -0.048148
O       2.690145    0.086079   -0.047279
H      -0.883993    1.943628    0.131191
H       0.857442    3.650184   -1.090647
H       0.574060    3.795306    0.649183
H       3.048107    4.487665   -0.606496
H       2.894804    4.072759    1.100689
