13

N      -0.219826    1.192393    0.378402
C      -0.075539    0.001231    0.007161
C      -1.138559   -1.073881    0.004152
O      -0.527940   -2.182254   -0.647072
C       0.858148   -1.946872   -0.727299
O       1.076008   -0.564777   -0.477350
C       1.588274   -2.763467    0.345508
O       2.425516   -3.585373    0.096342
H       0.649418    1.720139    0.294326
H      -1.445141   -1.324543    1.027064
H      -2.021607   -0.761834   -0.559361
H       1.232200   -2.210380   -1.721604
H       1.257337   -2.534053    1.383412
