17

C       0.679357   -1.461754   -0.230629
C       0.467714   -0.280159   -0.166410
C       0.199962    1.153444   -0.106935
C      -0.585524    1.652809    1.140290
C       0.721346    2.380816    1.500455
O       1.373437    1.912717    0.298282
C      -0.293405    1.639281   -1.458311
C      -1.708112    1.601239   -1.833747
O      -1.069105    2.832535   -1.476974
H       0.873275   -2.504973   -0.280590
H      -1.417231    2.309356    0.887497
H      -0.904225    0.867955    1.824320
H       0.668059    3.474053    1.530528
H       1.228508    2.017402    2.401575
H       0.464643    1.575183   -2.238688
H      -1.985459    1.502620   -2.881278
H      -2.444911    1.235627   -1.119970
