18

O       0.209158    1.304205    0.416005
C       0.029003   -0.040947    0.087439
C      -1.461646   -0.379241   -0.116405
N      -1.649759   -1.821387   -0.308938
C      -2.021802   -2.275937   -1.645510
C      -0.650809   -2.531835   -1.130679
C       0.566730   -1.809400   -1.706833
C       0.739905   -0.386712   -1.208015
O       1.381940    0.454964   -1.798426
H       0.785830    1.661954   -0.278944
H       0.416922   -0.698174    0.884192
H      -2.017157   -0.061092    0.770620
H      -1.838148    0.212322   -0.963487
H      -2.755814   -3.076182   -1.690887
H      -2.127797   -1.520889   -2.424683
H      -0.437868   -3.529138   -0.753488
H       1.473097   -2.344497   -1.394283
H       0.584649   -1.799949   -2.801085
