19

O       0.003443   -0.042732    0.028018
C      -0.013612    1.167059   -0.011772
C      -1.342324    1.921535   -0.015506
C      -1.547026    2.824083    1.225694
C      -0.773864    4.123453    1.128021
O      -0.029121    4.560149    2.268818
C       0.696210    4.143502    1.108193
C       1.506870    2.865733    1.184473
C       1.293423    1.957521   -0.051116
H      -1.405800    2.537217   -0.922958
H      -2.127601    1.164089   -0.068137
H      -2.614606    3.044047    1.326573
H      -1.252067    2.292227    2.135122
H      -1.291683    4.930481    0.606496
H       1.177575    4.964159    0.573188
H       2.570389    3.114758    1.256590
H       1.251171    2.326344    2.101320
H       2.097375    1.221777   -0.125257
H       1.315523    2.574416   -0.959693
