18

C      -0.198993    1.532898   -0.058431
C       0.067865    0.047348    0.033609
O       1.145682   -0.441252   -0.831805
C       1.683368   -1.187119    0.243238
C       2.211890   -0.281084    1.335821
C       2.811450    0.999461    1.079425
N       3.318871    2.022866    0.895142
C       0.717443   -0.624215    1.254781
C      -0.027285   -1.219854    2.412754
H       0.678182    2.127735    0.197074
H      -0.506179    1.788417   -1.077444
H      -1.019649    1.800589    0.616090
H      -0.840957   -0.516284   -0.218931
H       2.073302   -2.179880    0.047663
H       2.697088   -0.825146    2.142917
H      -0.384846   -0.441272    3.096040
H      -0.896345   -1.788757    2.065244
H       0.608006   -1.898760    2.989738
