18

O      -0.140937    0.894757    1.217133
C      -0.007050    1.536550    0.195601
N       1.105793    1.551273   -0.583750
C       2.318652    0.830005   -0.239898
C       3.503780    1.789891   -0.136419
C       4.970268    1.250806   -0.140466
C       5.359751    2.285586   -1.243902
C       3.860494    2.550021   -1.423620
O       3.186880    3.018531   -2.300961
H      -0.802645    2.187822   -0.216685
H       1.144924    2.161878   -1.387309
H       2.129430    0.319558    0.706925
H       2.531982    0.064675   -0.998256
H       3.336894    2.499283    0.682757
H       5.509376    1.324857    0.803725
H       5.028169    0.221127   -0.501833
H       5.878753    3.164317   -0.847228
H       5.897893    1.933855   -2.127217
