18

C      -0.262241    1.460002    0.111169
C       0.082007   -0.013349    0.022968
N      -1.028141   -0.979192    0.276945
C      -0.450661   -1.341811    1.591749
C       0.887449   -0.705340    1.151081
C       1.852801   -1.627959    0.381093
O       1.763033   -1.299518   -1.017359
C       0.801709   -0.377998   -1.276246
O       0.590719    0.046388   -2.376102
H       0.638056    2.081143    0.064533
H      -0.897429    1.738200   -0.735644
H      -0.789258    1.685288    1.043761
H      -1.956504   -0.571618    0.287618
H      -0.894450   -0.814938    2.446596
H      -0.448620   -2.416937    1.804799
H       1.398513   -0.075112    1.877976
H       2.895052   -1.488288    0.680279
H       1.596147   -2.685749    0.496509
