21

O       0.054438    1.437013    0.299345
C      -0.011941    0.060293    0.105934
C      -0.545471   -0.879729    1.160567
C      -1.311430   -0.667488   -0.136584
C      -2.641522    0.057375   -0.138671
C      -3.851663   -0.801432    0.257230
C      -4.811079    0.235468    0.857369
C      -3.841265    1.186514    1.565708
O      -2.626710    1.145611    0.809602
H      -0.800648    1.716276    0.657001
H       0.850689   -0.273054   -0.463314
H      -0.052933   -1.830564    1.334866
H      -0.959990   -0.411605    2.047378
H      -1.284134   -1.475881   -0.863960
H      -2.807688    0.490745   -1.137573
H      -4.272525   -1.342483   -0.593394
H      -3.550904   -1.533824    1.014265
H      -5.351903    0.762406    0.064300
H      -5.547531   -0.195539    1.539540
H      -4.195952    2.221642    1.601319
H      -3.639567    0.857426    2.594731
