16

N       0.139258    1.345617    0.159899
C      -0.054409   -0.024965    0.048257
C      -1.175586   -0.816461    0.016306
C      -0.676753   -2.157862    0.010202
C       0.679597   -2.065621    0.029856
O       1.095159   -0.765149    0.057670
C       1.331135   -3.354006   -0.001549
C       0.346866   -4.282195   -0.036225
C      -1.027774   -3.617629   -0.032030
H       0.958755    1.664769   -0.342777
H      -0.675649    1.873325   -0.121449
H      -2.194526   -0.463079   -0.002019
H       2.397074   -3.535401    0.006389
H       0.481167   -5.354781   -0.057190
H      -1.621802   -3.942522    0.832397
H      -1.605963   -3.895948   -0.922979
