19

C      -0.140390    1.541689   -0.054013
C       0.040385    0.030620   -0.028301
O      -1.221253   -0.588591   -0.226890
C       1.270682   -0.637502   -0.718412
O       1.500541   -0.536379   -2.076355
C       2.157889   -0.126089    0.468881
C       0.859763   -0.683264    1.096589
O       0.602273   -0.679754    2.450586
C       1.000752   -1.916775    0.134710
H      -0.539767    1.849322   -1.028277
H      -0.864109    1.836521    0.711560
H       0.780629    2.101598    0.107729
H      -1.576633   -0.276878   -1.065701
H       2.262803   -1.079692   -2.302879
H       3.056625   -0.713714    0.670147
H       2.355546    0.941657    0.552105
H      -0.282540   -1.039932    2.580592
H       0.098012   -2.478630   -0.091768
H       1.866612   -2.556207    0.323623
