18

C       0.162591    1.361552    0.052183
C      -0.148627   -0.137582   -0.026774
C       0.853267   -0.934066   -0.946506
N       1.411055   -1.538015    0.261003
C       0.439380   -0.959160    1.181710
C       2.372655   -2.460070    0.484222
O       2.639584   -2.921950    1.574741
C      -1.552120   -0.382887   -0.307353
C      -2.715026   -0.580354   -0.539684
H       1.225356    1.517589    0.262417
H      -0.083017    1.858767   -0.890532
H      -0.420568    1.833150    0.848093
H       0.368240   -1.645544   -1.622163
H       1.549841   -0.306211   -1.512701
H       0.879089   -0.356412    1.982260
H      -0.246389   -1.693258    1.614113
H       2.901889   -2.741168   -0.449964
H      -3.742463   -0.757062   -0.742763
