15

C       0.020376    1.498985    0.058722
C      -0.280911    1.853797    1.507878
C       0.835282    1.334044    2.400821
C      -0.452252    0.556937    2.264569
N       0.178751   -0.464437    1.371709
C       0.027994   -0.008627   -0.045358
C       1.337705    0.742364   -0.015770
C       1.489607    0.311546    1.454250
H      -0.303988    2.113895   -0.770188
H      -0.835545    2.739884    1.786534
H       1.264412    1.855731    3.246640
H      -1.239310    0.315509    2.968578
H      -0.454308   -0.608950   -0.807181
H       2.100159    0.871508   -0.773203
H       2.363259   -0.254966    1.774594
