22

C       0.796568   -0.348483    1.330656
C       0.122224   -0.178905   -0.033903
C      -1.351081   -0.622384   -0.062260
C      -1.516373   -2.134980    0.163457
C      -2.941664   -2.678027    0.005084
N      -2.219883    0.268994    0.783986
C      -3.050150    0.705998   -0.371532
C      -2.109687   -0.080843   -1.294532
O      -1.996025   -0.218139   -2.476426
H       1.800379    0.086648    1.319386
H       0.216010    0.161862    2.105329
H       0.899472   -1.400285    1.614688
H       0.161603    0.878961   -0.317647
H       0.665684   -0.731875   -0.809486
H      -0.853063   -2.650209   -0.541135
H      -1.145277   -2.375827    1.167171
H      -2.966412   -3.751397    0.213712
H      -3.643150   -2.198870    0.697014
H      -3.317690   -2.529894   -1.012146
H      -2.750639   -0.236506    1.483883
H      -4.079546    0.324445   -0.397554
H      -3.077002    1.790666   -0.524624
