25

C       0.792776    1.656306   -0.082012
C       0.544075    0.159961   -0.296585
C       1.290294   -0.470595   -1.495001
C       0.925107    0.204656   -2.822212
O       2.702915   -0.269642   -1.356310
C       0.926502   -1.956743   -1.582512
C       1.797567   -2.962073   -2.289662
C       1.555200   -3.096062   -0.803479
C       2.692194   -2.976558    0.193937
H       1.864041    1.874682   -0.046203
H       0.358529    2.260314   -0.884013
H       0.345435    1.990423    0.859175
H       0.840161   -0.393167    0.605912
H      -0.530062   -0.026976   -0.416694
H       1.202046    1.261244   -2.810486
H       1.462657   -0.278382   -3.642242
H      -0.148364    0.124190   -3.018561
H       2.939181   -0.462098   -0.443897
H      -0.142606   -2.084916   -1.741221
H       1.346652   -3.670979   -2.975855
H       2.782905   -2.612379   -2.581302
H       0.837791   -3.864389   -0.523112
H       3.523705   -2.387331   -0.199254
H       2.366197   -2.531147    1.142034
H       3.090490   -3.970309    0.427179
