19

C       0.054442    1.517984    0.022568
O       1.183683    0.621926    0.001786
C      -0.119614    0.065233    0.021852
C      -0.516089   -0.913289    1.096908
C      -1.882890   -1.512269    0.770284
C      -2.826905   -0.749528   -0.161561
C      -2.032803   -0.639712   -1.493364
C      -0.581352   -0.917399   -1.075711
C      -0.671198   -2.006162    0.040645
H      -0.072572    2.081989    0.946160
H      -0.096269    2.090976   -0.892099
H      -0.086511   -0.969531    2.090112
H      -2.300477   -2.128408    1.559554
H      -3.765783   -1.295091   -0.296092
H      -3.083916    0.236089    0.240307
H      -2.367444   -1.401679   -2.205994
H      -2.149255    0.335929   -1.975512
H       0.133871   -1.057494   -1.885981
H      -0.288629   -3.017006    0.021377
