16

C      -0.338615    1.710375   -0.151992
C       0.204831    0.258954   -0.140166
N       1.310583    0.204609    0.819792
C       1.356332   -0.742285    1.673713
N       2.399911   -0.877213    2.536115
C      -0.906766   -0.679196    0.103811
C      -1.815832   -1.428023    0.342668
C       0.769781   -0.039138   -1.482749
N       1.213214   -0.254635   -2.527420
H       0.490314    2.395367   -0.338643
H      -1.102775    1.833738   -0.922189
H      -0.770901    1.928063    0.826949
H       0.595423   -1.523643    1.767527
H       3.061794   -0.118416    2.588280
H       2.284212   -1.441020    3.359962
H      -2.626110   -2.089942    0.528723
