21

C       0.905039    1.593635    1.155891
O       0.883455    0.479830    0.294759
C       0.208789   -0.657808    0.810665
C      -1.312332   -0.508049    0.793087
C       0.681093   -1.819620   -0.061633
O       0.134545   -3.015709    0.454977
C       0.501319   -4.149820   -0.304580
C      -0.089087   -5.350285    0.272825
C      -0.562796   -6.355598    0.727389
H       1.337135    1.340326    2.136927
H       1.531972    2.353295    0.682023
H      -0.094025    2.022125    1.320683
H       0.544609   -0.852035    1.842928
H      -1.650798    0.272519    1.479871
H      -1.652266   -0.252347   -0.216077
H      -1.776746   -1.451089    1.091188
H       0.357646   -1.655027   -1.103090
H       1.781521   -1.852020   -0.056223
H       0.167630   -4.037901   -1.350583
H       1.599508   -4.254524   -0.335282
H      -0.984471   -7.241185    1.134382
