14

O       0.612876    0.795735    0.710997
C       0.252097   -0.291011   -0.072028
C      -1.261015   -0.767668   -0.198955
C      -1.009597   -1.046117   -1.724076
C       0.214030   -0.132662   -1.595547
O       0.754544    0.653524   -2.320499
C      -1.692066   -1.862151    0.639133
C      -2.024816   -2.786449    1.332627
H       0.606294    1.580345    0.149178
H       0.851853   -1.162955    0.217377
H      -1.913180    0.103429   -0.082599
H      -0.736934   -2.088475   -1.908619
H      -1.777694   -0.736863   -2.433631
H      -2.325591   -3.597032    1.949173
