15

C      -0.441085    1.375827   -0.009095
N       0.022230   -0.007918   -0.008490
C       0.254632   -0.682575   -1.180746
N       0.661335   -1.895692   -1.289424
N       0.873349   -2.548789   -0.098982
C       0.701198   -2.056339    1.163225
O       0.911726   -2.702332    2.171402
C       0.222165   -0.626647    1.222953
N       0.007845   -0.005151    2.311739
H       0.273893    2.009677    0.521274
H      -0.547926    1.715163   -1.040043
H      -1.399797    1.449368    0.510276
H       0.074653   -0.129534   -2.094341
H       1.193031   -3.502454   -0.190116
H       0.217637   -0.644692    3.080883
