20

C       0.358506    0.910820    0.759067
C      -0.369788    0.362645   -0.479114
C       0.569156   -0.152761   -1.519881
N       0.703653    0.281451   -2.708382
C       1.728861   -0.529608   -3.325600
C       1.602593   -0.881590   -4.783331
C       2.657622    0.100217   -4.327416
C       2.192221   -1.522795   -2.252119
O       1.358605   -1.196638   -1.121283
H       0.980447    0.138505    1.218390
H       1.003618    1.753013    0.491146
H      -0.363605    1.259268    1.502587
H      -1.033143   -0.457228   -0.177352
H      -0.985062    1.134288   -0.946297
H       1.920833   -1.871822   -5.094960
H       0.738384   -0.491686   -5.308474
H       2.503569    1.150522   -4.546175
H       3.694806   -0.221151   -4.328509
H       2.022297   -2.571453   -2.518106
H       3.240410   -1.395262   -1.959788
