15

C      -0.087060    1.342937    0.070378
N       0.010275   -0.103849   -0.044878
C       0.556550   -0.608334   -1.042277
O       1.129778   -0.013115   -2.137405
N       1.623439   -1.032187   -2.998580
C       1.327105   -2.121964   -2.398514
C       1.681957   -3.494984   -2.874712
O       2.258096   -3.488338   -4.151349
O       0.685841   -1.976460   -1.219696
H       0.487454    1.894292   -0.682743
H      -1.138373    1.641551   -0.007695
H       0.259275    1.641742    1.064588
H       2.327827   -3.957672   -2.109138
H       0.769973   -4.100803   -2.923515
H       2.907244   -2.776339   -4.190157
