21

C      -0.118169    1.585875   -0.033354
C      -0.018441    0.059566   -0.025822
C       0.857093   -0.524159   -1.125265
C       2.284503   -0.605860   -0.611589
C       1.413258   -1.850016   -0.649622
C       1.120384   -2.019406    0.854180
C       2.497712   -1.750201    1.526338
C       2.304180   -0.335982    0.904131
C       0.763655   -0.522564    1.148481
H       0.875552    2.044339    0.008153
H      -0.612681    1.946314   -0.941666
H      -0.693826    1.950214    0.824376
H      -1.026734   -0.375425   -0.064572
H       0.654458   -0.348425   -2.175866
H       3.149004   -0.466472   -1.246741
H       1.598865   -2.685509   -1.311461
H       0.472021   -2.841848    1.157658
H       2.440548   -1.742456    2.619178
H       3.356497   -2.343821    1.199156
H       2.853470    0.534953    1.261804
H       0.415430   -0.307214    2.158393
