23

C      -0.095150    1.542154    0.093419
C      -0.148905    0.031432   -0.147332
C       0.944828   -0.461162   -1.106115
C       0.908973   -1.965047   -1.306014
C       0.030768   -2.680118   -2.311258
C      -0.489150   -1.896650   -3.502757
O       0.630671   -1.208175   -4.056854
C       1.822821   -1.925599   -3.741753
C       1.537023   -2.700152   -2.468391
H       0.866746    1.839840    0.525959
H      -0.219299    2.096259   -0.843660
H      -0.883323    1.867507    0.779820
H      -0.057260   -0.496736    0.811417
H      -1.132320   -0.243889   -0.549640
H       0.849704    0.052532   -2.067091
H       1.927266   -0.181450   -0.700077
H       0.997813   -2.513275   -0.368989
H      -0.521371   -3.562238   -2.007268
H      -0.931450   -2.589414   -4.237073
H      -1.241392   -1.138159   -3.258064
H       2.089052   -2.625964   -4.549891
H       2.627357   -1.186724   -3.654316
H       2.117571   -3.596479   -2.280843
