19

O      -0.056236    1.400922    0.169322
C       0.026316   -0.005611   -0.023304
C      -1.381068   -0.546892   -0.068671
C      -2.232414   -0.474616    1.265711
C      -2.702729   -1.896280    0.993877
C      -3.044097   -2.123933   -0.505413
C      -3.270708   -0.931587   -1.371561
C      -2.289196   -0.046023   -1.174249
C      -1.616397   -2.098588   -0.034864
H       0.836484    1.758148    0.171635
H       0.545990   -0.248759   -0.964672
H       0.583687   -0.488318    0.796352
H      -1.568759   -0.454195    2.134810
H      -2.968242    0.331107    1.344474
H      -3.078488   -2.595202    1.731898
H      -3.514301   -3.076643   -0.720904
H      -4.135687   -0.806769   -2.011330
H      -2.211982    0.952836   -1.583865
H      -0.884639   -2.888180   -0.163703
