19

C      -0.021496    1.482855    0.002264
C      -0.022489   -0.026588   -0.053913
C       0.719905   -0.706154   -1.139504
N       1.290594   -0.632840    0.254517
C       1.195240   -2.145503    0.303986
C      -0.134303   -2.789025    0.000077
C       0.711695   -2.253066   -1.125078
C       1.208392   -3.064612   -2.284839
H       0.910158    1.885508   -0.404377
H      -0.859167    1.891320   -0.573073
H      -0.114689    1.828928    1.036556
H      -0.917488   -0.482771    0.356283
H       1.189543   -0.151432   -1.948341
H       1.989353   -2.664711    0.826906
H      -0.093507   -3.871691    0.086606
H      -1.097277   -2.379994    0.284357
H       0.477798   -3.081994   -3.103185
H       2.144185   -2.656676   -2.684433
H       1.395570   -4.101099   -1.986924
