18

C       0.026872    1.321237    0.043231
O       0.068641   -0.089307   -0.052337
C       0.704857   -0.561593   -1.174296
C       0.287415   -0.400574   -2.673767
C       1.543327   -1.312986   -2.670320
C       2.189627   -0.345036   -1.636584
C       0.883053   -2.063059   -1.465641
O       1.684270   -2.766086   -0.554507
H       1.035807    1.755823    0.071864
H      -0.523503    1.769597   -0.796169
H      -0.489544    1.562458    0.974686
H      -0.661170   -0.854822   -2.974070
H       0.423130    0.588378   -3.115395
H       2.023373   -1.757153   -3.539320
H       2.448518    0.648753   -2.009851
H       2.961184   -0.763808   -0.992524
H      -0.041819   -2.606991   -1.700744
H       1.868148   -3.634767   -0.924504
