17

O      -0.021740    1.162049    0.264123
N      -0.000047   -0.241589    0.314375
C      -1.126297   -0.737034    0.007014
C      -2.521056   -0.283433   -0.368897
N      -2.929939   -1.730832   -0.442966
C      -1.584573   -2.141586    0.019847
C      -0.805255   -3.376725   -0.366947
C      -1.152248   -3.130342    1.080611
O      -0.199573   -2.768527    2.023628
H       0.889150    1.392524    0.476611
H      -3.015921    0.311779    0.406583
H      -2.610379    0.238090   -1.326655
H      -3.652573   -1.950779    0.236310
H      -1.354553   -4.152324   -0.891539
H       0.222426   -3.231012   -0.685782
H      -1.920076   -3.762622    1.519228
H       0.224703   -1.948297    1.729171
