15

C      -0.034538    1.532500    0.069359
C       1.527791    1.553667    0.054509
C       1.549317   -0.000968   -0.034481
C       1.527564   -0.778058    1.305553
O       0.788871   -0.004388    2.258665
C       0.052859   -0.797869    1.319858
C      -0.015650   -0.022179   -0.019426
H      -0.496456    1.936156    0.971913
H      -0.487580    2.005875   -0.804799
H       1.951124    2.039005   -0.827941
H       1.995700    1.969835    0.948256
H       2.116674   -0.477418   -0.834064
H       2.259720   -1.470675    1.706847
H      -0.652494   -1.509815    1.735092
H      -0.585150   -0.514102   -0.808041
