17

C      -0.488782    1.490663    0.173062
C      -0.167506    0.007139   -0.005123
O      -1.312990   -0.809741    0.090758
C       0.692834   -0.326463   -1.258894
C       1.983452   -0.504080   -0.378053
C       2.950601    0.571273   -0.431365
C       3.727889    1.488886   -0.461492
C       1.028808   -0.455741    0.862416
O       1.136615   -0.786760    2.003136
H       0.406080    2.109716    0.059319
H      -1.227277    1.794288   -0.575114
H      -0.902653    1.673433    1.170814
H      -1.657087   -0.732843    0.988500
H       0.375516   -1.267862   -1.708677
H       0.749713    0.453566   -2.017139
H       2.474192   -1.477269   -0.479399
H       4.427995    2.286827   -0.490240
