15

C       0.044754    1.513625   -0.130798
C      -0.044631    0.032701   -0.026859
C      -1.105883   -0.805561   -0.076504
N      -2.472557   -0.605083   -0.328113
N      -0.633134   -2.103979    0.131432
C       0.753311   -2.120829    0.259313
O       1.486901   -3.079968    0.399740
N       1.086514   -0.778510    0.184655
H       0.601267    1.839991   -1.019256
H      -0.955181    1.952314   -0.190023
H       0.542605    1.952134    0.743515
H      -3.044814   -0.712441    0.505162
H      -2.648035    0.310915   -0.720468
H      -1.166785   -2.941484   -0.023502
H       2.043418   -0.472964    0.190812
