16

C       0.126988   -1.160667   -0.019252
C       0.075845    0.039416   -0.014551
C      -0.036382    1.478112    0.001114
C      -1.024747    2.165007    0.994313
N      -1.530191    3.085991   -0.078112
C      -0.334057    3.591632   -0.818679
C       1.037076    3.491153   -0.169574
O       1.247007    2.095737    0.074968
C      -0.827956    2.238324   -1.105300
H       0.183304   -2.221322   -0.025401
H      -1.840737    1.509722    1.302948
H      -0.574782    2.644035    1.869456
H      -0.560587    4.426617   -1.471433
H       1.823091    3.852419   -0.841651
H       1.098719    4.060685    0.767630
H      -1.288597    1.855738   -2.006751
