15

C      -0.045863    1.415708   -0.039065
N       0.002355   -0.026786    0.016894
N      -0.086730   -0.759003   -1.110152
C      -0.032836   -2.029325   -0.702393
C       0.073622   -2.110773    0.697193
O       0.137802   -3.189645    1.538948
C       0.088017   -0.798830    1.138483
N       0.243962   -0.247997    2.421331
H       0.546155    1.821596    0.784104
H       0.371952    1.731730   -0.995317
H      -1.072872    1.792159    0.040343
H      -0.072751   -2.831609   -1.425712
H       0.396659   -3.962807    1.029658
H       0.606085   -0.955546    3.051350
H      -0.631636    0.089102    2.811779
