15

O       0.044574    1.449127    0.259900
C       0.055455    0.064811    0.091645
C      -0.545079   -0.846889    1.161687
C      -1.265543   -0.573103   -0.116899
C      -2.616994    0.065297   -0.398273
C      -2.725659   -1.044762   -1.426974
N      -3.583080   -1.401201   -2.266461
O      -1.483852   -1.587533   -1.122759
H       0.720947    1.679959    0.905655
H       0.891736   -0.343436   -0.476241
H      -0.092226   -1.823348    1.296957
H      -0.939498   -0.383776    2.060787
H      -3.352778    0.014502    0.405997
H      -2.581905    1.075831   -0.807444
H      -3.274368   -2.223609   -2.787507
