17

O      -0.134379    0.014544    0.295303
C       0.003010    1.183795    0.055687
O      -1.022590    2.076288   -0.004127
C      -1.926033    2.127743    1.120176
C      -1.536858    3.316439    1.969207
C      -0.302248    3.577274    2.405530
C       0.914444    2.670485    2.287509
C       1.684563    2.642337    0.968130
C       1.303831    1.913290   -0.080604
H      -2.934936    2.245819    0.719379
H      -1.884664    1.172241    1.656321
H      -2.323756    4.037785    2.173244
H      -0.141999    4.508192    2.944010
H       1.615507    2.943651    3.081388
H       0.600885    1.642028    2.507833
H       2.624885    3.185233    0.935105
H       1.894122    1.809819   -0.983328
