21

C      -0.267730    1.509342    0.004666
C       0.094337    0.029689   -0.149577
O       0.934040   -0.191228   -1.273671
C       0.749198   -0.551412    1.104596
O       1.996218    0.109205    1.267003
C       2.754871   -0.276714    2.397438
C       3.451601   -1.629481    2.259176
C       3.750520    0.856418    2.636114
O       4.763312    0.743044    3.273353
H       0.619069    2.097222    0.258483
H      -0.680815    1.888014   -0.933343
H      -1.011320    1.653827    0.796091
H      -0.817619   -0.547853   -0.343484
H       1.809611    0.122436   -1.017045
H       0.115002   -0.395551    1.991988
H       0.897498   -1.631016    0.967983
H       2.100539   -0.290291    3.289608
H       2.736295   -2.454985    2.268124
H       4.018776   -1.665665    1.324608
H       4.147380   -1.757121    3.091743
H       3.439582    1.818692    2.173346
