17

C      -0.160884   -1.268862   -0.071846
C      -0.087736   -0.069465   -0.041764
C      -0.004439    1.376238   -0.009434
C      -0.145429    2.025321    1.404666
N       1.322214    2.152845    1.462120
C       1.870866    3.345464    2.068254
C       3.338161    3.338092    2.036033
N       4.492161    3.345782    1.992426
C       1.441226    1.968889    0.002582
H      -0.221889   -2.328681   -0.098005
H      -0.659169    1.811443   -0.767068
H      -0.670425    2.992703    1.349767
H      -0.585388    1.414349    2.196935
H       1.526321    4.280413    1.582413
H       1.548321    3.393199    3.115256
H       2.256536    1.314538   -0.312596
H       1.491673    2.916591   -0.556551
