15

C      -0.002637    1.531636    0.030061
C      -0.065843    0.036890    0.015264
C      -1.217738   -0.695274   -0.087118
O      -2.428714   -0.061124   -0.185868
C      -1.083745   -2.109039   -0.084672
N       0.032767   -2.774630    0.005883
C       1.226781   -2.073849    0.111651
O       2.326382   -2.576651    0.201806
N       1.098127   -0.666402    0.109620
H       0.604091    1.903616   -0.803486
H      -1.004161    1.952395   -0.052528
H       0.454096    1.892506    0.958746
H      -3.124349   -0.723057   -0.249262
H      -1.998191   -2.706407   -0.166054
H       1.975462   -0.170088    0.187214
