15

C      -0.048352    1.445571    0.009127
N      -0.005034   -0.003407   -0.000315
C      -1.123166   -0.804367    0.002894
N      -2.312064   -0.354875    0.013249
C      -0.575597   -2.221770   -0.008109
O       0.846114   -2.070940   -0.015417
C       1.169028   -0.741745   -0.010392
N       2.332412   -0.252643   -0.014239
H       0.979483    1.806014    0.000835
H      -0.587878    1.810150   -0.869264
H      -0.569567    1.799675    0.902795
H      -2.989573   -1.115813    0.013729
H      -0.881382   -2.782278    0.881737
H      -0.891586   -2.772324   -0.900616
H       3.032437   -0.990275   -0.021912
