19

C      -0.067983    1.432929   -0.073882
O       0.152046    0.040217    0.082879
C       0.637523   -0.604259   -1.070977
C       1.173148   -2.002549   -0.718355
C       0.539784   -2.910134   -1.740614
C      -0.366407   -2.304473   -2.523696
C      -1.223448   -2.876603   -3.604876
C      -0.453375   -0.875317   -2.138215
O      -1.238318   -0.059777   -2.571835
H       0.861818    1.947573   -0.364616
H      -0.836631    1.642927   -0.823547
H      -0.389704    1.809209    0.900231
H       1.424807    0.004715   -1.547673
H       2.266859   -2.060853   -0.732875
H       0.855808   -2.262690    0.298228
H       0.801776   -3.962053   -1.806721
H      -1.060804   -3.950236   -3.727777
H      -2.282066   -2.703035   -3.383880
H      -1.024753   -2.380212   -4.561210
