16

N       0.054323    1.283607    0.141531
C       0.006780    0.038061   -0.041220
C      -1.238529   -0.821418    0.097151
C      -0.712411   -2.252481   -0.000427
C       0.762215   -2.119754   -0.490382
C       1.281727   -2.926027    0.730120
C      -0.150511   -2.884725    1.296914
O      -0.646680   -3.186048    2.340333
O       1.083648   -0.732149   -0.408305
H       0.997925    1.638743   -0.020422
H      -1.747876   -0.608288    1.038912
H      -1.934153   -0.585379   -0.713179
H      -1.355896   -2.934346   -0.559455
H       1.031468   -2.487680   -1.480881
H       1.595514   -3.946027    0.484726
H       2.060998   -2.446355    1.326776
