18

C      -0.063416    1.577398    0.078731
C      -0.021025    0.034560    0.034421
C       0.735359   -0.517119    1.263600
C      -1.384207   -0.502133    0.017960
C      -2.499411   -0.949137    0.029444
C       0.689346   -0.457241   -1.276153
O       0.040505   -0.057618   -2.461729
C       2.109538   -0.044806   -1.296571
N       3.208501    0.311819   -1.329587
H       0.949602    1.991473    0.058722
H      -0.634538    1.983493   -0.760927
H      -0.553744    1.910541    0.996325
H       0.211129   -0.233615    2.179258
H       0.791535   -1.609143    1.232821
H       1.751360   -0.114997    1.305625
H      -3.486566   -1.341274    0.031117
H       0.656764   -1.551393   -1.279541
H       0.155828    0.892587   -2.573391
