14

O      -0.076962    0.001456   -0.189096
C      -0.062785    1.170141   -0.060110
C      -1.050006    2.405537    0.105647
N       0.005994    2.909894    1.029115
C       1.008437    2.395361    0.037074
C       0.603123    3.043775   -1.281203
C      -0.743650    3.051554   -1.232686
C       2.385519    2.260381    0.407688
C       3.541595    2.120816    0.705326
H      -2.068702    2.321907    0.474644
H       0.018656    3.933547    1.049204
H       1.274283    3.291366   -2.090402
H      -1.454833    3.306142   -2.005236
H       4.561039    1.996157    0.976130
