14

N      -0.134623    1.259367   -0.011746
C      -0.008970    0.000326   -0.012743
C      -1.211446   -0.963186    0.018020
N      -0.542320   -2.249630    0.003758
N      -0.939703   -3.545372    0.015425
N       0.152468   -4.251506   -0.010018
C       1.260032   -3.439061   -0.038181
C       0.800886   -2.145569   -0.029033
N       1.138325   -0.801348   -0.039278
H       0.763384    1.743122   -0.034332
H      -1.807933   -0.817074    0.921860
H      -1.851183   -0.819854   -0.856201
H       2.259334   -3.836822   -0.061844
H       2.076074   -0.441583   -0.062854
