16

C      -0.119904    1.557994    0.024830
C       0.072647    0.038343   -0.005849
C       0.877961   -0.529415   -1.198396
N       1.950811   -1.391536   -0.677432
C       1.953282   -1.333574    0.604286
N       2.832973   -1.928370    1.449750
C       0.868054   -0.470821    1.188767
O       0.691060   -0.264367    2.365584
H       0.841260    2.075739   -0.060303
H      -0.755432    1.888622   -0.801674
H      -0.586408    1.862406    0.965988
H      -0.911930   -0.444228    0.047388
H       0.252734   -1.110247   -1.885694
H       1.327951    0.274470   -1.795387
H       3.422763   -2.664201    1.098592
H       2.567754   -1.957130    2.421415
