17

O      -0.622205    0.740662    0.807875
C       0.191999    0.957094   -0.052630
C       1.237431    2.018855    0.046414
O       2.380975    1.837786   -0.804255
C       1.504272    2.912181   -1.103103
C       0.779436    2.913013   -2.452972
C       0.896050    4.387988   -2.886382
O       2.044565    4.893726   -2.215379
C       2.018804    4.339369   -0.913593
H       0.232301    0.375946   -0.999948
H       1.440970    2.377434    1.055318
H       1.318414    2.251061   -3.135915
H      -0.257468    2.576349   -2.392641
H       1.049317    4.519609   -3.959178
H      -0.002449    4.952285   -2.589299
H       1.338748    4.907067   -0.256533
H       3.026504    4.359328   -0.493095
