16

C       0.109149   -1.201640    0.131972
C       0.050422   -0.002204    0.071530
C      -0.010835    1.450374    0.013224
C      -0.706183    2.113261    1.249738
C       0.023355    3.431394    1.442788
O       1.310969    3.268604    2.048836
C       1.249832    3.450465    0.629352
C       1.384112    2.145763   -0.136605
H       0.159674   -2.260930    0.183305
H      -0.600348    1.729367   -0.869087
H      -1.774636    2.255952    1.067313
H      -0.597323    1.493229    2.143536
H      -0.515369    4.331331    1.729980
H       1.704369    4.365846    0.257784
H       2.178436    1.536389    0.302574
H       1.628395    2.308867   -1.189674
