21

C       0.089860    1.533891    0.171147
C      -0.095271    0.026515   -0.048374
C       0.671640   -0.503848   -1.238078
C       2.234610   -0.408087   -1.401793
C       2.017198   -1.530948   -2.453614
C       0.872344   -2.037327   -1.533551
C       1.236162   -0.791318   -3.555446
C       0.244279   -0.051858   -2.633263
O      -0.655624    0.686990   -2.937349
H       1.142643    1.783980    0.342407
H      -0.258458    2.095667   -0.698909
H      -0.476921    1.871474    1.043894
H       0.212333   -0.521228    0.851214
H      -1.160579   -0.189805   -0.197828
H       2.666832    0.540278   -1.734315
H       2.747134   -0.761250   -0.503312
H       2.830475   -2.184315   -2.766368
H       1.237368   -2.562273   -0.647245
H       0.044021   -2.591252   -1.985917
H       1.839896   -0.086741   -4.136385
H       0.711554   -1.450241   -4.254412
