17

O       0.107438    1.522958    0.150571
C       0.045360    0.110692    0.066423
C       0.153191   -0.636140    1.426232
C      -0.998997    0.005242    2.240532
C      -2.124376    0.065110    1.141303
O      -2.612526    1.355827    0.871299
C      -1.358853   -0.589467   -0.047741
C      -0.643722   -1.732568    0.691926
O      -0.646514   -2.926545    0.654949
H       0.146557    1.875012   -0.744554
H       0.761324   -0.270382   -0.668923
H       1.105572   -0.818903    1.918695
H      -1.279757   -0.599525    3.105834
H      -0.749257    1.010973    2.585420
H      -2.996117   -0.532097    1.418889
H      -1.835134    1.894443    0.672090
H      -1.894043   -0.722214   -0.985036
