15

O       0.044148    0.073124    0.019124
C       0.009548    1.268320   -0.033228
C      -1.083770    2.295317    0.007428
C      -0.114035    3.234026    0.738214
C       1.066893    2.384990    0.112993
C       0.900669    3.197983   -1.200302
C      -0.500740    3.564722   -0.678809
C      -1.365569    4.588097   -1.157780
C      -2.077537    5.460510   -1.581322
H      -2.149559    2.185835    0.148408
H      -0.249354    3.745596    1.678258
H       2.038616    2.186293    0.554432
H       1.541115    4.082581   -1.221917
H       0.977701    2.651681   -2.145890
H      -2.708886    6.229270   -1.952829
