18

C      -0.153998    1.495603    0.017832
C       0.024346   -0.005014   -0.010001
C      -0.752028   -0.852579    0.965868
C       0.752502   -0.757573    1.097471
C       1.548222   -1.862954    0.443269
O       0.754822   -2.852256   -0.232988
C       1.351671   -1.808630   -1.014840
C       0.428721   -0.645346   -1.350811
H       0.742187    2.014223   -0.343254
H      -0.994473    1.808180   -0.613615
H      -0.358682    1.849088    1.033521
H      -1.346140   -0.324592    1.705075
H      -1.157464   -1.802139    0.639367
H       1.191328   -0.243257    1.944918
H       2.452602   -2.238785    0.913485
H       2.090125   -2.145663   -1.739397
H      -0.432533   -0.967215   -1.946864
H       0.985301    0.083004   -1.953237
