18

C      -0.102401    1.587852   -0.109202
C       0.063725    0.085442    0.031574
N       1.093163   -0.643627   -0.852671
C       2.422045    0.011882   -0.508867
C       2.266194   -0.587470    0.870526
O       3.168295   -0.783692    1.904911
C       1.326349   -1.623644    0.319002
C       0.754174   -0.550378    1.212235
O       0.329225   -0.590293    2.519579
H       0.777342    2.146783    0.219536
H      -0.311578    1.850363   -1.151758
H      -0.949335    1.921419    0.498628
H      -0.892245   -0.409643   -0.171372
H       3.209123   -0.469593   -1.096323
H       2.466306    1.096205   -0.651063
H       3.386904    0.078131    2.281062
H       1.317149   -2.702157    0.254416
H       1.107451   -0.774760    3.064319
