15

N      -0.063027    1.438379   -0.237050
C       0.001936    0.053194   -0.046288
C      -1.017429   -0.828440    0.163956
O      -0.535471   -2.111924    0.202625
C       0.803030   -2.036894    0.027035
C       1.558397   -3.327756    0.037665
C       1.628911   -3.949833    1.366084
N       1.686824   -4.438861    2.410860
C       1.194598   -0.745031   -0.134184
H       0.722682    1.928000    0.171070
H      -0.923918    1.845976    0.103538
H      -2.081458   -0.720205    0.286355
H       1.099284   -4.045645   -0.652883
H       2.577542   -3.147693   -0.317444
H       2.201261   -0.392158   -0.298907
