11

F       0.036244    0.023874    0.002456
C      -0.018421    1.348777    0.010710
C      -1.212743    1.985623    0.030289
C      -1.275192    3.427439    0.039652
O      -2.245300    4.129794    0.055559
O      -0.006719    4.078373    0.025826
C       1.142648    3.401341    0.006562
C       1.219725    2.054292   -0.001867
H      -2.149159    1.445534    0.039538
H       2.004368    4.058823   -0.001461
H       2.166670    1.535111   -0.017498
