20

C      -0.089901    1.496584    0.099644
N       0.001641    0.051584    0.008209
C       0.079109   -0.683911    1.265093
C      -1.305115   -1.174950    1.749505
C      -1.230394   -1.822541    3.051323
C      -1.129420   -2.344099    4.129640
C      -0.031849   -0.678161   -1.154611
C      -0.080234    0.080645   -2.473726
O      -0.017006   -1.899273   -1.129901
H      -0.218755    1.941638   -0.884922
H      -0.945895    1.797728    0.717229
H       0.815475    1.921390    0.552546
H       0.729078   -1.548308    1.122278
H       0.527105   -0.030645    2.019396
H      -2.001414   -0.327717    1.796585
H      -1.694642   -1.871126    0.999351
H      -1.056776   -2.814848    5.078437
H       0.759052    0.774313   -2.582644
H      -0.037652   -0.660294   -3.271156
H      -1.006056    0.655923   -2.576790
