19

C      -0.140224    1.550460    0.006781
C      -0.089754    0.051483   -0.024197
C      -0.226841   -0.645463   -1.167513
C      -0.106144   -2.105541   -1.235447
O      -0.132655   -2.719875   -2.288209
C       0.169107   -2.857465    0.077012
O       1.584416   -3.006064    0.202372
C      -0.330450   -2.096252    1.295641
C       0.162508   -0.644597    1.290118
H       0.779196    1.957008    0.446899
H      -0.265968    1.978120   -0.990364
H      -0.964798    1.896315    0.642990
H      -0.390601   -0.143773   -2.117306
H      -0.317383   -3.839982    0.002928
H       1.896190   -3.421943   -0.609876
H      -1.426682   -2.110945    1.285028
H      -0.003759   -2.611292    2.204447
H       1.243198   -0.623782    1.486881
H      -0.303938   -0.077926    2.104253
