19

O       0.222002    1.309480   -0.260196
C       0.084682   -0.045508    0.140221
C      -1.353351   -0.526338    0.065268
C      -2.025467   -0.596790   -1.328653
N      -2.622158   -1.891470   -0.934551
C      -2.716887   -2.923042   -1.944310
C      -3.304290   -4.153196   -1.399956
N      -3.746636   -5.128244   -0.966896
C      -1.637609   -2.048299    0.158272
H      -0.248512    1.856684    0.376943
H       0.708681   -0.620947   -0.552986
H       0.487427   -0.212346    1.152315
H      -1.976582    0.030325    0.773048
H      -2.749751    0.174880   -1.604946
H      -1.275271   -0.686296   -2.131851
H      -3.357379   -2.565309   -2.759480
H      -1.739110   -3.185100   -2.395436
H      -0.757930   -2.647157   -0.133515
H      -2.046314   -2.451644    1.088443
