24

C      -0.133347    1.556648   -0.197335
C      -0.000814    0.034161   -0.048896
C       0.682139   -0.570946   -1.282825
C       0.754858   -0.368995    1.232003
C       0.047596    0.025749    2.534124
C       0.719312   -0.559019    3.801514
C       2.139348   -0.015598    4.056148
C      -0.130300   -0.309297    4.971910
N      -0.802253   -0.100365    5.889074
H       0.854495    2.032157   -0.234487
H      -0.657648    1.812805   -1.123625
H      -0.690325    2.006881    0.629420
H      -1.013740   -0.389274    0.016669
H       1.701708   -0.183097   -1.396671
H       0.747551   -1.661718   -1.210244
H       0.132422   -0.327710   -2.197791
H       0.896387   -1.458734    1.224796
H       1.760568    0.070153    1.197993
H       0.003722    1.115333    2.638885
H      -0.990656   -0.324806    2.501782
H       0.780059   -1.649515    3.684738
H       2.124098    1.074314    4.149279
H       2.555760   -0.430276    4.977335
H       2.802058   -0.283857    3.230484
