13

O      -0.073918   -0.001765   -0.188205
C      -0.065481    1.164171   -0.058001
C      -1.044735    2.403928    0.105715
N       0.014259    2.908041    1.028777
C       1.003956    2.398188    0.034433
C       0.609404    3.042262   -1.285916
C      -0.737240    3.048957   -1.233867
C       2.388197    2.269406    0.409620
N       3.501567    2.147263    0.694548
H      -2.062519    2.322909    0.476677
H       0.025155    3.931351    1.057461
H       1.281880    3.291161   -2.093116
H      -1.449043    3.306397   -2.004367
