20

C      -0.089674    1.502221    0.018269
C       1.304899    0.930355    0.117856
C       2.050397    0.852352    1.433652
C       2.862619   -0.446826    1.561891
C       2.074807   -1.734563    1.604636
C       0.776450   -1.954182    1.383418
C      -0.287173   -0.941455    1.002209
C       0.131795    0.012612   -0.107403
H      -0.552980    1.865541    0.931087
H      -0.357511    2.067879   -0.867693
H       1.948555    1.093528   -0.743740
H       2.726456    1.710868    1.531222
H       1.349867    0.924597    2.272954
H       3.586137   -0.505002    0.733365
H       3.481673   -0.398565    2.469102
H       2.680411   -2.602693    1.864537
H       0.424000   -2.977327    1.499866
H      -1.193664   -1.474199    0.693567
H      -0.584689   -0.368905    1.890319
H       0.042105   -0.405442   -1.106235
