18

O       0.053335    1.325737    0.506517
C      -0.092653    0.074216   -0.159341
C      -1.489674   -0.456957   -0.107867
C      -2.003710   -1.893242   -0.117235
C      -2.132952   -1.079035    1.136142
N      -3.590814   -0.786510    0.977015
C      -3.626837    0.624851    0.436418
C      -2.783453    0.119856   -0.749519
C      -3.384728   -1.296909   -0.466605
H      -0.459854    1.977555    0.018986
H       0.258220    0.144849   -1.201165
H       0.582207   -0.618997    0.356125
H      -1.519441   -2.838760   -0.319716
H      -1.642312   -1.162838    2.097218
H      -4.655162    0.880071    0.162843
H      -3.209259    1.387490    1.100665
H      -2.728462    0.595129   -1.729959
H      -4.221713   -1.763315   -0.982396
