18

C       0.354304    1.370775    0.071671
N       0.056456   -0.043456   -0.000450
C      -0.718941   -0.648089   -0.957128
C      -0.678090   -2.007196   -0.752050
C       0.161516   -2.241842    0.375424
C       0.482995   -3.588855    0.976185
C       1.391968   -3.534858    2.117268
C       2.139486   -3.489394    3.057426
C       0.599050   -1.011368    0.809350
H       1.261536    1.627450   -0.488236
H      -0.481616    1.942417   -0.338484
H       0.493633    1.666455    1.114531
H      -1.232373   -0.058107   -1.700279
H      -1.203863   -2.751450   -1.331700
H      -0.444586   -4.089745    1.288248
H       0.919267   -4.243298    0.208243
H       2.799819   -3.459863    3.888089
H       1.250423   -0.753050    1.628417
