15

C      -0.405705    1.411864   -0.013922
N      -0.043440    0.007888   -0.034492
C       0.679352   -0.520523   -0.928936
N       0.945215   -1.888275   -0.815753
C       1.711743   -2.574347   -1.704839
N       2.285674   -2.098684   -2.746480
O       2.075058   -0.707635   -2.958331
C       1.322945    0.091709   -2.132107
N       1.185004    1.322016   -2.399494
H       0.473291    2.063246    0.025654
H      -0.966993    1.703464   -0.907636
H      -1.023751    1.589148    0.870170
H       0.532481   -2.347782   -0.017576
H       1.857074   -3.633134   -1.521606
H       1.693734    1.554124   -3.255396
