23

C      -0.033062    1.534536    0.023471
C       0.034633    0.006069   -0.005747
C       0.916204   -0.577087   -1.133170
C       2.320081   -0.306848   -0.563170
O       2.184044   -0.368546    0.863704
C       0.800754   -0.590473    1.186643
C       0.512659   -2.094878    1.312810
C       0.982637   -2.840102    0.048135
C       0.635468   -2.089697   -1.255356
H       0.956078    1.977700    0.170638
H      -0.447588    1.929826   -0.910111
H      -0.672178    1.878502    0.843650
H      -0.981383   -0.398971   -0.061702
H       0.764324   -0.076011   -2.094085
H       3.058630   -1.048282   -0.892982
H       2.692672    0.686119   -0.847301
H       0.603883   -0.070955    2.130470
H       1.022312   -2.501210    2.192858
H      -0.564286   -2.232062    1.475865
H       2.070037   -2.956772    0.109556
H       0.567654   -3.853014    0.023038
H      -0.424419   -2.229667   -1.503725
H       1.208504   -2.517014   -2.086784
