17

C       0.016636    1.531854    0.201478
C      -0.009657    0.011496   -0.054823
C      -1.400882   -0.532057   -0.091670
C      -2.127366   -0.960453   -1.141527
C      -3.482578   -1.410945   -0.731508
O      -4.340776   -1.843273   -1.463421
C      -3.580487   -1.224871    0.783042
C      -2.214375   -0.666784    1.165191
O      -1.824811   -0.383110    2.273213
H       1.049350    1.889472    0.236444
H      -0.505279    2.073757   -0.592969
H      -0.460668    1.768958    1.155061
H       0.504770   -0.221972   -0.992159
H       0.531958   -0.487919    0.756922
H      -1.809827   -0.996913   -2.177572
H      -4.384731   -0.532112    1.050045
H      -3.787416   -2.170599    1.293091
