21

O       0.177027    0.629305    1.019458
C      -0.135936    0.335548   -0.338478
C      -1.482033   -0.373163   -0.338480
C      -2.132564   -0.673244   -1.707773
C      -1.100644   -1.607567   -2.397153
C      -1.507080   -2.583011   -1.284635
C      -2.950138   -1.984478   -1.303056
C      -3.016821   -2.112776    0.225582
C      -1.490933   -1.848299    0.132434
H       1.060046    1.008737    1.047602
H      -0.200824    1.258675   -0.938908
H       0.646498   -0.292972   -0.785634
H      -2.145397    0.229428    0.291926
H      -2.599297    0.154382   -2.242880
H      -1.468792   -1.965557   -3.363921
H      -0.064632   -1.277757   -2.510533
H      -1.303033   -3.653305   -1.300480
H      -3.729288   -2.320067   -1.987402
H      -3.623129   -1.417684    0.815599
H      -3.252133   -3.142234    0.512765
H      -0.803051   -2.126880    0.929246
