18

C      -0.001725    1.408632   -0.219301
N      -0.040092   -0.044815   -0.253741
C      -1.102947   -0.640331    0.061869
O      -2.286336   -0.039655    0.424890
C      -3.187708   -0.992193    1.009571
C      -2.596904   -2.365725    0.734006
C      -2.989192   -3.559665    1.555467
O      -2.406822   -2.554324   -0.671081
C      -1.283039   -2.116022    0.123413
H       0.985548    1.728332    0.127860
H      -0.127847    1.801424   -1.235749
H      -0.773385    1.858095    0.416474
H      -3.266296   -0.801357    2.086944
H      -4.171742   -0.861973    0.548616
H      -4.061028   -3.762706    1.455303
H      -2.444299   -4.444597    1.219376
H      -2.773380   -3.393214    2.615506
H      -0.425518   -2.776587    0.169681
