17

N       0.154639    1.357532    0.289859
C      -0.024443   -0.058230   -0.020031
C      -1.464660   -0.374818   -0.025350
N      -2.587505   -0.644295   -0.041904
C       0.630419   -0.546377   -1.329275
C       2.068743   -1.038315   -1.234593
C       0.958389   -2.023483   -1.454227
C       0.229662    0.181402   -2.502235
C      -0.121551    0.821653   -3.458277
H       1.150072    1.556258    0.340654
H      -0.213227    1.914699   -0.477460
H       0.420446   -0.635388    0.800575
H       2.725376   -0.807681   -2.064524
H       2.542635   -1.003235   -0.258686
H       0.662746   -2.663670   -0.629705
H       0.851393   -2.472267   -2.433871
H      -0.439224    1.367069   -4.312540
