17

O      -0.158599    1.266188   -0.509902
C      -0.028809   -0.058370   -0.107430
C      -0.391917   -0.411434    1.307234
O      -1.038504    0.643910    1.978684
C      -2.451333    0.552918    1.719331
C      -2.584138   -0.106847    0.333192
C      -2.858254    0.897975   -0.786779
O      -3.384001    1.967029   -0.614761
C      -1.277295   -0.887636    0.178129
H      -0.313982    1.782094    0.295690
H       0.807161   -0.567749   -0.578281
H       0.209043   -1.060120    1.936160
H      -2.928435   -0.055423    2.498041
H      -2.868675    1.561517    1.734817
H      -3.430263   -0.805573    0.308186
H      -2.590088    0.537028   -1.802239
H      -1.302476   -1.928266   -0.120770
