14

C      -0.021854    1.429261   -0.014748
C      -0.000636   -0.057969   -0.018310
N      -0.055057   -0.797993   -1.101008
N      -0.007770   -2.067645   -0.604385
N      -0.021729   -3.309798   -1.136999
C       0.055202   -4.042737   -0.023543
N       0.117128   -3.374143    1.174973
C       0.073396   -2.129568    0.739179
N       0.079414   -0.818596    1.140649
H       0.883290    1.839675    0.445622
H      -0.081240    1.781442   -1.044952
H      -0.885222    1.814253    0.538549
H       0.067354   -5.121108   -0.075294
H       0.129707   -0.476047    2.083814
