20

C       0.118618    1.528366    0.067762
C      -0.038502    0.052603   -0.082112
C       0.711883   -0.985891   -0.829265
C      -0.510453   -1.883091   -1.087695
C      -0.447582   -2.990862   -0.008175
C      -0.471736   -1.804042    0.967126
N       0.760687   -0.958578    0.680375
C      -1.257942   -0.924861   -0.061205
C      -2.725517   -0.620222   -0.073273
H       1.181185    1.788712    0.106225
H      -0.335457    2.065860   -0.772284
H      -0.348512    1.887638    0.991899
H       1.655366   -0.932267   -1.359456
H      -0.843560   -2.052012   -2.110668
H      -1.376147   -3.568146    0.039855
H       0.415292   -3.662380    0.009434
H      -0.689486   -1.895328    2.031117
H      -3.016295   -0.017432    0.794986
H      -3.010772   -0.064730   -0.974420
H      -3.319550   -1.541207   -0.050833
