20

C      -0.285172    1.389706    0.166640
N       0.059125   -0.026132    0.236246
C       1.393694   -0.467515   -0.230996
C       2.372725    0.470135   -0.705465
C       3.192525    1.239936   -1.134191
C       1.015622   -0.521659    1.228614
C       1.669457    0.392385    2.243265
C       0.565765   -1.863605    1.789836
O      -0.565190   -1.703373    2.628610
H       0.567776    2.076833    0.223889
H      -0.800820    1.572720   -0.781089
H      -0.978463    1.621540    0.980886
H       1.364395   -1.396321   -0.798830
H       3.922072    1.914622   -1.508814
H       1.937392    1.364609    1.829369
H       0.995161    0.536384    3.092950
H       2.587383   -0.070210    2.620525
H       0.352498   -2.555874    0.962481
H       1.351998   -2.306268    2.410477
H      -1.251424   -1.319345    2.069485
