20

C       0.002308    1.498256    0.353898
C      -0.001542    0.055836   -0.174638
C      -1.364001   -0.571165   -0.155067
N      -2.015717   -1.011171    1.100419
C      -1.828707   -1.978617   -0.012200
C      -3.014635   -1.758076   -0.951601
C      -2.517347   -0.270026   -1.151000
C      -3.422606    0.825711   -0.866934
C      -4.173132    1.739545   -0.647320
H       1.006818    1.929139    0.305847
H      -0.669699    2.132368   -0.231768
H      -0.336524    1.535420    1.393721
H       0.386201    0.038295   -1.201560
H       0.682326   -0.563494    0.421435
H      -1.266746   -1.180217    1.772957
H      -1.255817   -2.886341    0.135298
H      -2.969712   -2.332668   -1.878463
H      -3.996310   -1.866372   -0.487540
H      -2.104111   -0.159130   -2.159280
H      -4.836547    2.541591   -0.438470
