18

C      -0.210013    1.512531   -0.026134
C       0.066950    0.013456   -0.005007
N       0.942191   -0.377810   -1.112385
C       1.118887   -1.801192   -1.176085
C       2.502427   -2.348806   -0.875076
C       1.419567   -2.396354    0.165121
O       1.495879   -1.532018    1.277552
C       0.753372   -0.390255    1.305998
O       0.684615    0.237942    2.324335
H       0.728827    2.072329   -0.025972
H      -0.777909    1.780153   -0.923331
H      -0.785006    1.802896    0.853653
H      -0.898418   -0.528994   -0.025142
H       0.625227    0.011436   -1.991022
H       0.467048   -2.371712   -1.838320
H       2.811213   -3.286127   -1.324034
H       3.279665   -1.607077   -0.736309
H       0.993405   -3.355081    0.440518
