18

O      -0.009000    1.416875   -0.007019
C      -0.027971    0.000601   -0.031732
C      -1.436411   -0.490618    0.043897
C      -2.547636    0.250459    0.092917
C      -3.778662   -0.591022    0.074038
C      -3.972808   -1.416017   -1.184789
C      -3.278076   -2.024860    0.005823
C      -1.751105   -1.977677    0.058091
H       0.907653    1.703407   -0.043263
H       0.447185   -0.390263   -0.949956
H       0.549322   -0.422772    0.810851
H      -2.561118    1.332616    0.101392
H      -4.649393   -0.303442    0.653246
H      -4.973176   -1.776083   -1.403776
H      -3.386238   -1.146247   -2.057656
H      -3.790277   -2.818315    0.536868
H      -1.286079   -2.508490   -0.784084
H      -1.365426   -2.455472    0.970144
