16

N      -0.054045    1.210243    0.680482
C      -0.012298    0.065476    0.122522
N      -1.153917   -0.543130   -0.340479
C      -1.194564   -1.751127   -1.090040
C      -0.611765   -1.855392   -2.492162
C       0.102347   -2.465800   -1.298891
N       1.269673   -1.851394   -0.747943
C       1.312026   -0.671612   -0.066828
O       2.347760   -0.194717    0.355797
H       0.898373    1.456455    0.955680
H      -1.981156    0.034706   -0.309310
H      -2.063336   -2.364061   -0.869802
H      -1.088759   -2.521720   -3.202524
H      -0.176402   -0.954825   -2.910565
H       0.105466   -3.546728   -1.203991
H       2.171727   -2.270212   -0.926697
