19

C      -0.066205    1.384226   -0.053012
N      -0.010050   -0.056212    0.033892
N      -0.027563   -0.794294   -1.092710
C       0.035300   -2.065155   -0.688276
C       0.038513   -3.199072   -1.663176
C       0.093055   -2.124123    0.721327
O       0.165627   -3.217576    1.539704
C       0.062621   -0.817386    1.167229
C       0.097255   -0.267950    2.552377
H       0.825274    1.845197    0.386760
H      -0.117491    1.639935   -1.110847
H      -0.951416    1.780147    0.457159
H       0.948413   -3.807769   -1.584220
H      -0.817852   -3.870018   -1.517784
H      -0.013620   -2.806373   -2.680827
H       0.172201   -4.008188    0.992414
H       0.966191    0.379642    2.722277
H      -0.798621    0.318491    2.790584
H       0.153470   -1.095303    3.263187
