15

C       0.092757    1.555036    0.007906
C      -0.034179    0.034357    0.003675
C      -1.446166   -0.484254    0.012843
N      -2.446930    0.330964    0.023378
C      -3.736648   -0.190882    0.031645
O      -4.738776    0.454890    0.041606
O      -3.890316   -1.594721    0.028030
N      -2.825499   -2.457659    0.016873
C      -1.657645   -1.920720    0.009657
H       1.147010    1.843367    0.000722
H      -0.394824    1.992003   -0.866607
H      -0.381184    1.985969    0.892850
H       0.469109   -0.400912   -0.872148
H       0.482622   -0.406887    0.868572
H      -0.826874   -2.618966    0.000885
