13

C       0.058949    1.380257   -0.106687
C       1.553931    1.801939    0.077877
N       2.040439    0.589848    0.691130
N       3.235807    0.132612    1.164771
C       2.945827   -1.146647    1.357770
N       1.672252   -1.553847    1.024404
C       1.168703   -0.422342    0.603027
O      -0.007256   -0.065247    0.066051
H      -0.577953    1.837390    0.655576
H      -0.332565    1.615501   -1.096523
H       2.060912    2.003920   -0.872013
H       1.656839    2.674184    0.727496
H       3.677330   -1.829788    1.763196
