15

O       0.018780    1.416016    0.177555
C      -0.012715    0.032382   -0.125910
C      -1.381137   -0.546064    0.026293
C      -2.098723   -1.020798    1.234939
C      -1.944602   -1.952433    0.022625
C      -2.832455   -1.442802   -1.062299
N      -3.656570   -1.954577   -1.853438
O      -2.374813   -0.124056   -0.962472
H      -0.563707    1.860399   -0.448376
H       0.353384   -0.167186   -1.143986
H       0.666590   -0.458321    0.578113
H      -1.475196   -1.294991    2.080503
H      -3.070292   -0.608627    1.486659
H      -1.470360   -2.921301    0.072819
H      -4.038349   -1.257115   -2.494362
