18

C      -0.401927    1.317916   -0.044611
C       0.043276   -0.128249   -0.129144
O       1.106965   -0.220276   -1.031195
C       1.197546   -1.450395   -1.718452
C       1.219109   -2.676419   -0.861931
C       1.044155   -2.794932    0.457460
C       0.790765   -1.780723    1.495277
N       0.912314   -2.134739    2.713238
O       0.447393   -0.496053    1.187714
H       0.447502    1.940553    0.246816
H      -0.767734    1.649972   -1.018712
H      -1.195675    1.427998    0.697109
H      -0.779454   -0.787274   -0.445141
H       0.375091   -1.544276   -2.451158
H       2.123122   -1.397370   -2.304521
H       1.400930   -3.590269   -1.425518
H       1.122895   -3.781235    0.901432
H       0.710267   -1.339609    3.322972
