13

O      -0.223116    0.206175    0.506472
C       0.047005    1.129205   -0.212003
C       1.371483    1.867272   -0.136997
O       1.339439    2.894040   -1.130704
C       2.421849    3.653943   -1.218588
N       3.487232    3.515954   -0.463779
O       4.326842    4.537896   -0.942679
C       3.652486    5.147403   -1.916248
N       2.474397    4.664138   -2.147141
H      -0.647601    1.517604   -0.987769
H       1.510697    2.297083    0.862282
H       2.202651    1.175395   -0.319047
H       4.141989    5.972428   -2.413118
