12

O      -0.085578    0.077325   -0.290838
C      -0.039296    1.220125   -0.002688
O      -1.004449    2.031833    0.503233
C      -0.130613    3.198357    0.558522
C       1.056703    2.362464   -0.013772
C       2.173416    2.126713    0.880993
C       3.074949    1.918747    1.645027
C       1.476942    2.744190   -1.359250
N       1.782608    3.055268   -2.428663
H      -0.496244    3.994404   -0.089855
H       0.010218    3.537099    1.584229
H       3.881670    1.732049    2.311433
