23

C       0.594234    1.388630   -0.362281
C       0.017308    0.031853    0.029364
O      -1.390517    0.111799    0.171850
C       0.563320   -1.132398   -0.854286
C       1.559832   -1.488678    0.282549
O       2.842861   -0.903751    0.121126
C       0.693847   -0.653653    1.277814
C       1.435447    0.232511    2.274487
C      -0.291340   -1.568134    2.016416
H       1.679254    1.337680   -0.473160
H       0.175130    1.705335   -1.327083
H       0.346425    2.149500    0.383884
H      -1.738075    0.616855   -0.570544
H      -0.194294   -1.904447   -1.006258
H       1.009181   -0.865214   -1.817466
H       1.651326   -2.554886    0.530292
H       3.265840   -1.327322   -0.632505
H       2.212893    0.830232    1.797543
H       0.734894    0.907582    2.778833
H       1.916263   -0.379139    3.045785
H       0.248862   -2.178322    2.748841
H      -1.044244   -0.977883    2.545092
H      -0.824491   -2.240177    1.339166
