23

C      -0.212196    1.357083    0.048586
O      -0.124171   -0.044569   -0.029721
C       0.697382   -0.486444   -1.088613
C       0.734690   -2.010404   -1.051329
C       1.464686   -2.659763   -2.239077
C       2.950609   -2.272679   -2.307126
C       1.304877   -4.195068   -2.181359
C       1.756933   -4.871180   -3.454888
O       2.565419   -5.760478   -3.525109
H       0.772612    1.821356    0.218424
H      -0.640522    1.793024   -0.868390
H      -0.865021    1.598199    0.891087
H       0.296804   -0.136256   -2.057368
H       1.708259   -0.058547   -0.986630
H       1.198930   -2.329969   -0.109788
H      -0.302894   -2.363423   -1.022488
H       0.977631   -2.312769   -3.163224
H       3.459780   -2.784483   -3.130013
H       3.083961   -1.197711   -2.456265
H       3.465849   -2.550147   -1.380097
H       1.856232   -4.624140   -1.338501
H       0.240407   -4.438578   -2.050464
H       1.266123   -4.472973   -4.376126
