18

C      -0.237359    1.540969    0.171330
C       0.007477    0.040440    0.067287
C      -1.228657   -0.704076   -0.417163
O       1.147559   -0.236809   -0.795478
C       1.871646   -0.873170    0.267655
C       0.727599   -0.661303    1.281764
C       1.048522    0.177270    2.488370
O       0.601241   -0.016603    3.590173
H       0.674741    2.079105    0.439601
H      -0.577725    1.922940   -0.796225
H      -1.008119    1.762179    0.917208
H      -1.533186   -0.322234   -1.397016
H      -1.025426   -1.773900   -0.515088
H      -2.062170   -0.569446    0.280363
H       2.108762   -1.919987    0.046521
H       2.804388   -0.343273    0.505227
H       0.218596   -1.567064    1.613201
H       1.756523    1.017267    2.300368
