14

O      -0.115391    1.318168   -0.064063
N       0.003783   -0.070424   -0.039283
C      -1.130837   -0.649020   -0.000807
C      -2.501523   -0.050408    0.129587
O      -3.447184   -0.490081   -0.859568
C      -3.437715   -1.164303    0.391901
C      -2.641986   -2.469703    0.377387
O      -2.055802   -2.759892   -0.886183
C      -1.227333   -2.138412    0.109796
H       0.804022    1.607133   -0.075672
H      -2.622032    0.966209    0.485300
H      -4.326956   -1.065664    1.007270
H      -2.959698   -3.317226    0.977115
H      -0.370666   -2.713971    0.445704
