16

O      -0.068746   -0.027603    0.333274
C      -0.039193    1.153075    0.102637
C      -1.315644    2.001485    0.013302
O      -1.623647    2.367475   -1.319759
C      -0.812379    3.382637   -1.875865
C       0.602110    2.912058   -2.218190
N       1.474545    2.755564   -1.057903
C       1.325409    1.877946   -0.024718
O       2.179584    1.687548    0.816204
H      -2.143890    1.385505    0.369491
H      -1.215186    2.893387    0.654095
H      -1.316477    3.683012   -2.799734
H      -0.760167    4.254516   -1.204658
H       0.532086    1.980494   -2.795583
H       1.069289    3.660331   -2.864154
H       2.394850    3.170307   -1.098795
