17

C       0.038668    1.576323    0.045291
C      -0.016644    0.049018   -0.039593
N       0.664383   -0.487059   -1.208351
C       0.091409   -0.818089   -2.417662
C       0.979472   -1.242752   -3.356416
C       2.295692   -1.198382   -2.741577
O       3.403971   -1.477601   -3.149186
C       2.039364   -0.678387   -1.307948
N       2.872736   -0.454600   -0.380254
H       1.075850    1.915994    0.095385
H      -0.439331    2.038962   -0.823837
H      -0.480076    1.920710    0.945225
H       0.458078   -0.392116    0.841466
H      -1.053207   -0.302488   -0.070186
H      -0.983028   -0.723641   -2.517391
H       0.750755   -1.562688   -4.359716
H       3.804611   -0.692739   -0.734525
