23

C      -0.208072    1.536671   -0.092271
C       0.125089    0.045546   -0.069781
C       0.951060   -0.464387   -1.262772
C       1.294337   -1.907421   -0.861338
C       1.552210   -1.834846    0.673919
C       3.007039   -1.696668    1.043037
C       3.300399   -0.509412    1.566716
C       2.098270    0.394916    1.659123
C       0.908678   -0.483539    1.160700
H       0.690510    2.158855   -0.155847
H      -0.831307    1.778734   -0.959925
H      -0.759348    1.838514    0.805175
H      -0.827926   -0.503587   -0.085638
H       0.414140   -0.398424   -2.214446
H       1.867057    0.132651   -1.364038
H       0.439152   -2.561220   -1.068478
H       2.150735   -2.315202   -1.406626
H       1.108166   -2.707104    1.167101
H       3.720712   -2.495339    0.865673
H       4.288278   -0.193595    1.886447
H       1.934566    0.757114    2.681807
H       2.244714    1.295432    1.049118
H       0.221765   -0.653506    1.993893
