17

C      -0.015433    1.560150   -0.026391
C      -0.052864    0.029000   -0.072731
N      -1.430966   -0.432754   -0.117179
C      -1.848113   -1.182515   -1.062929
C      -3.229597   -1.633867   -1.110805
C      -3.616066   -2.429206   -2.120212
N      -2.690287   -2.784620   -3.072844
N      -1.396875   -2.372131   -3.060864
N      -0.991345   -1.627419   -2.132340
H       1.012111    1.915955    0.100912
H      -0.411372    1.985958   -0.953949
H      -0.621712    1.936194    0.802841
H       0.555260   -0.340236   -0.905648
H       0.388453   -0.360071    0.855513
H      -3.911116   -1.319582   -0.332115
H      -4.615677   -2.824666   -2.253829
H      -2.910948   -3.375206   -3.856705
