21

C      -0.134776    1.587085    0.053306
C      -0.010637    0.083278   -0.003220
O      -1.153587   -0.595607    0.458019
C       0.661015   -0.648282   -1.134546
C       1.365642    0.079727   -2.277274
C       2.900916    0.087540   -2.121829
C       3.335589    0.416901   -0.712788
C       2.609109    0.087757    0.357991
C       1.317912   -0.629846    0.238868
H       0.792708    2.086037   -0.232994
H      -0.942280    1.934674   -0.599735
H      -0.373105    1.905254    1.076294
H      -1.270829   -0.373823    1.388877
H       0.163132   -1.575668   -1.396776
H       1.093811   -0.386697   -3.229596
H       1.017569    1.116270   -2.339650
H       3.308100   -0.895170   -2.402261
H       3.339553    0.800890   -2.828570
H       4.289683    0.922342   -0.586514
H       2.965123    0.331591    1.356718
H       1.217625   -1.535063    0.832866
