18

C       0.006199   -1.187946   -0.041918
C       0.025133    0.014967   -0.025711
C       0.042057    1.454129    0.002461
C      -0.279988    2.285787    1.309370
C       0.454200    3.415057    0.509275
C       1.367476    2.284844   -0.035170
C      -0.562634    3.623534   -0.631943
N      -0.141077    3.095883   -1.953330
C      -0.861591    2.224068   -1.000385
H      -0.004044   -2.249377   -0.058453
H      -1.335638    2.432339    1.555611
H       0.274953    1.930134    2.180227
H       0.863462    4.297008    0.999628
H       2.068708    1.929471    0.720622
H       1.850664    2.419894   -0.999620
H      -1.316835    4.399512   -0.570908
H      -0.803106    3.416153   -2.657703
H      -1.848404    1.844448   -1.236078
