15

N      -0.191955   -1.202761   -0.092971
C      -0.109930   -0.050870   -0.035723
C       0.037610    1.395632    0.045907
N      -0.284043    2.029965    1.386526
C       0.708622    1.506193    2.345746
C       1.139111    2.581321    1.428167
C       1.461452    1.996814    0.076343
C       2.714544    1.602931   -0.562779
O       1.951919    2.746493   -1.002008
H      -0.563609    1.880175   -0.727310
H       0.475434    1.783172    3.368586
H       1.086918    0.494427    2.222140
H       1.351890    3.599145    1.733963
H       3.661787    1.834291   -0.079576
H       2.725794    0.761412   -1.252663
