16

C       0.018500    1.562725    0.049472
C       0.097046    0.054780    0.077893
C       1.334589   -0.730950   -0.141553
O       2.485292   -0.019929    0.368288
C       1.982623   -0.106769    1.668947
N       2.496962    0.215769    2.761128
C       0.698578   -0.768320    1.253758
C      -0.021467   -1.768500    1.955804
C      -0.642482   -2.612176    2.546525
H       0.957463    2.018152    0.369077
H      -0.195759    1.908107   -0.967407
H      -0.781168    1.920029    0.704508
H      -0.786357   -0.459867   -0.295205
H       1.518224   -1.525565   -0.851991
H       3.427549    0.616203    2.632426
H      -1.180814   -3.358100    3.076838
