13

C      -0.011911    1.482295    0.121538
O       1.251075    2.031298   -0.331564
C       2.267292    1.243717   -0.759794
N       2.326334   -0.025596   -0.848033
C       1.150469   -0.658321   -0.432469
C       0.056331    0.001723    0.018870
O      -0.920862   -0.841488    0.347793
N      -0.462278   -2.153737    0.105090
C       0.759320   -2.023819   -0.354058
H      -0.173270    1.827401    1.150811
H      -0.804177    1.913071   -0.503988
H       3.108261    1.867395   -1.048139
H       1.321272   -2.909400   -0.614169
