18

C      -0.238703    1.412389   -0.163606
N      -0.207023   -0.031415   -0.354752
C      -1.163834   -0.727529    0.037909
O      -2.348454   -0.371908    0.676149
C      -2.816714   -1.738402    0.671106
C      -4.079874   -1.940973   -0.131476
O      -4.580689   -1.115338   -0.845921
C      -1.482174   -2.210186   -0.006183
C      -1.504585   -2.869268   -1.380563
H       0.608564    1.708231    0.464652
H      -0.103519    1.901537   -1.133953
H      -1.163459    1.782770    0.292856
H      -2.966250   -2.114999    1.690172
H      -4.514086   -2.961312   -0.013997
H      -0.860320   -2.782886    0.687034
H      -2.151891   -2.326335   -2.074815
H      -0.493292   -2.868406   -1.795531
H      -1.848169   -3.906553   -1.320907
