16

C       0.707118    1.205677   -0.432622
C      -0.001236   -0.052055    0.038471
O       0.015730   -1.095040   -0.918090
C       1.068535   -1.992522   -0.576768
C       2.281364   -1.788515   -1.369951
C       3.269482   -1.629439   -2.033936
C       1.287434   -1.724449    0.912286
N       1.945027   -2.453833    1.696915
O       0.630206   -0.575305    1.216034
H       1.749986    0.988090   -0.675930
H       0.208141    1.590461   -1.325983
H       0.671517    1.969545    0.349080
H      -1.048900    0.146678    0.289385
H       0.701644   -3.013513   -0.719501
H       4.146960   -1.492560   -2.616709
H       1.951616   -2.067861    2.641700
