17

C      -0.102394    1.543353    0.015720
C      -0.078834    0.013580   -0.007260
C       0.747701   -0.559702    1.148160
N       0.781034   -2.010549    1.155192
N      -0.273483   -2.758973    1.572339
N       0.025501   -3.988629    1.449787
N       1.284920   -4.057862    0.943938
C       1.835619   -2.806151    0.726912
O       2.919987   -2.483271    0.294378
H       0.907123    1.958931   -0.073820
H      -0.698592    1.936799   -0.812095
H      -0.536870    1.921190    0.947730
H      -1.097896   -0.383537    0.058832
H       0.342136   -0.344715   -0.953651
H       1.792477   -0.243535    1.075698
H       0.352285   -0.225435    2.112376
H       1.717342   -4.949779    0.773922
