22

C      -0.098850    1.344108   -0.062278
N       0.090417   -0.100604    0.027705
C       1.505618   -0.495026   -0.123870
C       0.874177   -0.494259    1.215965
C       0.997929   -2.039799    1.304340
C       1.651995   -2.040606   -0.083171
C       0.382563   -2.831951    0.166767
C       0.696212   -4.320699    0.315645
C      -0.988297   -2.604469   -0.479691
H       0.747313    1.931080    0.336111
H      -0.242505    1.622862   -1.111070
H      -0.998988    1.623756    0.494370
H       2.222538    0.191593   -0.556865
H       0.996896    0.193048    2.043887
H       1.353841   -2.527881    2.204544
H       2.572732   -2.529280   -0.381012
H       1.673940   -4.492778    0.776962
H      -0.061523   -4.811518    0.936566
H       0.693244   -4.812522   -0.663490
H      -0.912373   -2.045282   -1.412577
H      -1.453099   -3.572748   -0.700317
H      -1.660606   -2.047665    0.173617
