15

O      -0.031781    1.424174   -0.041736
C       0.052060    0.010374   -0.042015
C       0.738109   -0.481684   -1.251262
N       1.308706   -0.805256   -2.201955
C       0.725199   -0.515545    1.234197
C      -0.010660   -0.186848    2.548940
O      -0.221961   -1.613415    2.792523
C       0.423477   -1.954724    1.621676
N       0.640806   -3.065207    1.089153
H       0.850213    1.784269   -0.192506
H      -0.984519   -0.343250   -0.069398
H       1.790961   -0.274742    1.229831
H       0.591245    0.262077    3.341139
H      -0.959650    0.342962    2.441560
H       0.264589   -3.835522    1.644024
