17

C      -0.034159    1.527477    0.049630
C      -0.029529    0.032691   -0.023006
C       1.002755   -0.868432   -0.668341
O       0.429281   -1.887812   -1.444748
C      -0.749745   -2.132133   -0.729613
C      -0.565058   -1.926827    0.778207
C       0.685684   -1.031822    0.811815
C      -1.286873   -0.887747   -0.059909
O      -2.598747   -0.474991    0.005682
H       0.978534    1.915409    0.200707
H      -0.424456    1.972632   -0.873323
H      -0.656010    1.881767    0.878905
H       1.956408   -0.512871   -1.037130
H      -1.386115   -2.907276   -1.135580
H      -0.916754   -2.614731    1.533513
H       1.404258   -0.932608    1.613645
H      -2.914064   -0.313796   -0.891123
