23

C      -0.091929    1.507135    0.029191
C      -0.037292   -0.008941    0.034647
C      -1.251080   -0.682360   -0.576968
C       1.317364   -0.663536   -0.172458
C       0.663199   -0.697924    1.180232
C       1.254442   -0.097737    2.478072
C       0.821003   -1.373566    3.216976
C      -0.658689   -1.593303    3.074457
C       0.243049   -1.954220    1.922723
H       0.798978    1.946679    0.487501
H      -0.162107    1.892578   -0.995300
H      -0.965950    1.875864    0.579807
H      -1.365202   -0.404091   -1.631660
H      -1.175869   -1.772373   -0.525488
H      -2.170580   -0.389033   -0.056615
H       1.358901   -1.587235   -0.743385
H       2.183705   -0.021615   -0.306952
H       2.340402    0.018518    2.424566
H       0.817724    0.838053    2.844826
H       1.400832   -1.877115    3.980307
H      -1.059026   -2.433952    3.632835
H      -1.337005   -0.746535    2.996006
H       0.314508   -2.966059    1.541054
