22

C      -0.414360    1.582565    0.038304
C      -0.068368    0.098560    0.100508
C       0.847832   -0.591544   -0.943345
N       1.675353   -1.260524    0.126445
C       2.316281   -0.180099    0.925504
C       3.004553    1.022023    0.321671
O       4.292990    0.668213   -0.163310
C       0.882533   -0.458040    1.170532
C       0.397516   -1.061823    2.458623
H       0.469878    2.220810   -0.032221
H      -1.047352    1.794370   -0.830555
H      -0.971716    1.887559    0.931078
H      -1.004112   -0.467695    0.163750
H       0.347098   -1.353460   -1.543564
H       1.411104    0.059751   -1.619396
H       2.962734   -0.639597    1.673337
H       2.408517    1.500658   -0.463710
H       3.171396    1.773715    1.101115
H       4.181856   -0.105530   -0.726640
H       0.095271   -0.278676    3.164533
H      -0.467797   -1.711318    2.286989
H       1.181223   -1.658434    2.933770
