19

C      -0.088550    1.590261    0.247698
C      -0.065063    0.069828    0.011710
C       0.904128   -0.626707    0.983034
C      -1.445771   -0.522541    0.089723
N      -1.978840   -1.114102   -0.973389
N      -3.208039   -1.525506   -0.554725
C      -3.445818   -1.204328    0.733898
O      -4.630971   -1.553385    1.281139
C      -2.328842   -0.547964    1.204738
H       0.914990    2.014739    0.137275
H      -0.751709    2.089611   -0.464612
H      -0.441072    1.828311    1.257600
H       0.281764   -0.114249   -1.011456
H       0.593181   -0.481720    2.023770
H       0.946621   -1.703148    0.793332
H       1.915683   -0.220109    0.878626
H      -3.824101   -2.010230   -1.184047
H      -4.645654   -1.256203    2.195987
H      -2.175504   -0.150671    2.195025
