21

C       0.049898    1.404822   -0.166446
N      -0.007807   -0.034338    0.069931
C       0.639283   -0.405366    1.324526
C      -1.345802   -0.580843   -0.064679
C      -1.982591   -0.515300   -1.492483
C      -2.470424   -1.975746   -1.313896
C      -1.453829   -2.139222   -0.155198
C      -2.278322   -0.044803    0.955021
N      -2.959427    0.407832    1.773769
H       1.096983    1.720779   -0.184099
H      -0.391521    1.641557   -1.138536
H      -0.475070    1.993930    0.604957
H       0.159757    0.043953    2.211020
H       0.628980   -1.492455    1.442775
H       1.682536   -0.077634    1.297286
H      -2.727466    0.259828   -1.676252
H      -1.178903   -0.439190   -2.228445
H      -3.503219   -2.021668   -0.961276
H      -2.362022   -2.644459   -2.168800
H      -0.496675   -2.534461   -0.503028
H      -1.772004   -2.674513    0.740157
