18

C       0.140979    1.707654    0.151649
C      -0.005643    0.179710   -0.029112
C       0.626389   -0.582580    1.176265
N      -0.028614   -0.222861    2.427172
C      -1.423282   -0.181908   -0.124420
N      -2.533586   -0.494740   -0.217572
C       0.786368   -0.245672   -1.299200
N       0.077386   -0.798883   -2.311474
O       1.987820   -0.068209   -1.335929
H       1.202171    1.956971    0.089048
H      -0.396362    2.251626   -0.629139
H      -0.246662    1.994881    1.129504
H       0.611078   -1.660125    0.948691
H       1.673588   -0.274444    1.211894
H      -0.907196   -0.721314    2.528603
H       0.553070   -0.484813    3.214730
H      -0.916348   -0.946991   -2.258024
H       0.576669   -1.078189   -3.140182
