22

C       0.555925    0.636641   -0.699088
C      -0.276127    0.486248    0.584108
C      -1.610940   -0.166745    0.339060
N      -2.702893    0.452820    0.521507
C      -3.973775   -0.200570    0.200083
C      -4.946074    0.849505   -0.339873
C      -3.782804   -1.375690   -0.766687
C      -2.627486   -2.232539   -0.273135
O      -1.440971   -1.449445   -0.096464
H       1.520163    1.103669   -0.478641
H       0.743725   -0.336893   -1.158895
H       0.035467    1.264300   -1.429386
H       0.280197   -0.121457    1.308043
H      -0.471636    1.459971    1.036865
H      -4.389407   -0.589812    1.142190
H      -4.569889    1.273509   -1.276928
H      -5.932112    0.412151   -0.529511
H      -5.054931    1.666497    0.377946
H      -4.691294   -1.982163   -0.845100
H      -3.552803   -0.994502   -1.769285
H      -2.877689   -2.705021    0.686468
H      -2.360369   -3.021796   -0.980621
