13

N      -0.034986    1.364338    0.105475
C       0.005889    0.006215    0.040121
N      -1.162637   -0.647036    0.033541
C      -1.105929   -1.974807    0.010003
C       0.103855   -2.671749   -0.013685
N       1.282045   -2.015931   -0.013782
C       1.234851   -0.702295    0.013919
C       0.120185   -4.103209   -0.042053
N       0.092482   -5.260262   -0.064855
H       0.785503    1.902252   -0.114012
H      -0.930018    1.801374   -0.044526
H      -2.051074   -2.510399    0.005571
H       2.182327   -0.167260    0.016259
