17

N      -0.072868    1.266696   -0.123907
C      -0.035836    0.011676    0.020997
O       1.131450   -0.714988    0.073142
C       0.943529   -2.017247    0.645418
C       0.179811   -1.880049    1.984270
C      -1.110317   -1.992968    1.156981
C      -0.345579   -2.725688    0.022560
N      -1.048768   -1.945521   -0.991292
C      -1.248743   -0.878565    0.041949
H       0.875812    1.648213   -0.149887
H       1.911012   -2.516060    0.609002
H       0.312207   -2.762049    2.617587
H       0.375573   -0.975508    2.566483
H      -2.049508   -2.340269    1.583615
H      -0.282666   -3.807362   -0.110471
H      -0.496379   -1.656100   -1.797622
H      -2.171466   -0.305208   -0.033152
