19

O      -0.169949    1.142869   -0.416259
C      -1.021617    0.041737   -0.523531
C      -0.872501   -0.879648    0.672891
O      -0.085925   -0.608026    1.554815
C      -1.722147   -2.135932    0.746352
O      -2.531912   -2.241539   -0.401950
C      -3.361200   -3.365776   -0.394661
C      -4.675755   -3.301251    0.339656
C      -4.627194   -3.260184   -1.176132
H       0.304001    1.017858    0.421534
H      -2.078669    0.344219   -0.592164
H      -0.823534   -0.545408   -1.434101
H      -1.045166   -2.999286    0.849799
H      -2.324466   -2.091115    1.667096
H      -2.820562   -4.312752   -0.399072
H      -5.043882   -4.194825    0.831167
H      -4.910646   -2.371916    0.846697
H      -4.823463   -2.305261   -1.649735
H      -4.960433   -4.125324   -1.737445
