19

C       0.264915    1.639730   -0.090563
C       0.065682    0.135375   -0.026598
C       0.981216   -0.793754   -0.892859
C       1.202831   -1.723217    0.335717
C       2.519172   -1.444576    1.113718
N       1.892990   -0.226367    1.692305
C       0.534846   -0.637185    1.233747
C       2.847009   -2.480277    2.095718
N       3.094238   -3.280610    2.893424
H       1.290915    1.898547    0.185914
H       0.070725    2.018873   -1.099664
H      -0.412505    2.160567    0.595610
H      -0.983837   -0.119829   -0.214688
H       0.496897   -1.264498   -1.750614
H       1.899532   -0.310131   -1.238734
H       0.868358   -2.755211    0.263223
H       3.409652   -1.240510    0.506982
H       2.007335   -0.124143    2.693224
H      -0.185476   -0.848545    2.027705
