18

C      -0.008134    1.582821    0.036315
C       1.481401    1.896096    0.008672
C       2.139811    0.652464    0.530799
O       1.157934   -0.325128    0.787201
C       0.029758    0.046108   -0.038865
C       0.363841   -0.428986   -1.450488
N       0.375162    0.583443   -2.526804
C       1.651614    0.135641   -1.923551
C       2.323866    1.036491   -0.932228
H      -0.437567    1.907989    0.989465
H      -0.569841    2.015857   -0.790137
H       1.831844    2.888225    0.265504
H       2.961511    0.613800    1.234231
H      -0.848303   -0.448766    0.378834
H       0.103834   -1.453590   -1.697947
H       0.246682    0.117073   -3.421138
H       2.305734   -0.487263   -2.527986
H       3.289071    1.446527   -1.210192
