18

C      -0.126834    1.570517    0.058027
C      -0.008080    0.044905    0.000478
O      -1.313890   -0.551367    0.010385
C       0.822525   -0.463453   -1.164172
C       1.821312   -1.259068   -0.786865
C       1.890814   -1.432476    0.709667
C       0.765130   -0.541122    1.183975
N       0.449662   -0.233329    2.374267
O       1.278652   -0.877024    3.305563
H       0.858523    2.044788    0.083300
H      -0.658291    1.945102   -0.825473
H      -0.680692    1.859881    0.954004
H      -1.798732   -0.195061   -0.742711
H       0.577156   -0.198871   -2.187638
H       2.520115   -1.745958   -1.457991
H       1.744696   -2.473090    1.028967
H       2.848924   -1.120813    1.144539
H       0.927442   -0.560474    4.144784
