19

O       0.079765    1.425702    0.027986
C       0.044427    0.005788   -0.019147
C      -1.386294   -0.547831   -0.024008
C      -1.476787   -2.079136   -0.127048
C      -0.923360   -2.960071    0.967833
C      -2.388140   -2.597353    0.972571
C      -2.775972   -1.396681    1.806682
O      -1.676076   -0.730315    2.448968
C      -2.190135   -0.180887    1.221972
H      -0.127454    1.692900    0.928619
H       0.550997   -0.279588   -0.946943
H       0.607426   -0.435980    0.813429
H      -1.908615   -0.108127   -0.883473
H      -1.524863   -2.504614   -1.123435
H      -0.665827   -3.976025    0.688503
H      -0.304998   -2.526481    1.742880
H      -3.140758   -3.355289    0.792114
H      -3.704303   -1.400087    2.370989
H      -2.636726    0.806857    1.314580
