20

O       0.154671    1.385274   -0.106605
C       0.028338   -0.017204    0.024190
C       0.531376   -0.622834    1.352685
C      -0.662661   -0.350508    2.319261
C      -1.393914   -1.352552    1.378812
C      -0.019614   -2.076436    1.255307
C      -1.422329   -0.564077    0.076954
C      -2.579018    0.181015   -0.461925
N      -2.134879   -1.086193   -1.088315
H      -0.333981    1.796771    0.614372
H       0.579925   -0.425981   -0.829760
H       1.564202   -0.403746    1.622781
H      -0.489056   -0.755105    3.318563
H      -1.060628    0.667403    2.402281
H      -2.309022   -1.869930    1.664087
H       0.175003   -2.645784    0.341661
H       0.226686   -2.675817    2.134498
H      -3.544985    0.128433    0.034174
H      -2.377921    1.113948   -0.981680
H      -1.612919   -0.876586   -1.937066
