17

O      -0.074102    1.468444   -0.053056
C       0.017894    0.067486    0.000976
C      -0.020925   -0.660982    1.387280
C      -1.499222   -0.173583    1.534493
C      -1.361936   -0.655010    0.038359
O      -2.311747   -0.724529   -0.951709
C      -0.593369   -1.849404    0.601420
C      -0.112256   -3.121347    0.087713
O      -1.127007   -3.034144    1.123880
H       0.796080    1.838643    0.123055
H       0.744807   -0.322766   -0.722760
H       0.752130   -0.677435    2.150732
H      -2.144803   -0.776827    2.173113
H      -1.633456    0.896489    1.681926
H      -2.575960    0.174069   -1.179388
H      -0.471067   -3.492539   -0.870549
H       0.844397   -3.523766    0.417360
