21

C       0.004943    1.554318   -0.000577
C       1.548854    1.439287    0.037451
C       1.360628    0.049292    0.697112
C      -0.069445    0.002594    0.040784
C      -0.074727   -0.733992   -1.270621
C       0.130455   -0.288200   -2.513126
C       0.389503    1.130884   -2.970650
C       1.663231    1.821129   -2.376264
O       2.189191    1.227342   -1.211435
H      -0.337329    1.962243    0.955057
H      -0.481672    2.113307   -0.796942
H       2.090898    2.213365    0.595877
H       2.083033   -0.711655    0.398711
H       1.303255    0.111237    1.787540
H      -0.855373   -0.406716    0.682774
H      -0.232046   -1.806655   -1.157116
H       0.115252   -1.033217   -3.305261
H       0.496789    1.134792   -4.060221
H      -0.490954    1.748921   -2.768481
H       2.477298    1.747614   -3.103622
H       1.460743    2.891923   -2.224446
