17

O      -0.558190    0.617608    0.667219
C       0.198806    0.890659   -0.226646
C       1.364575    1.863980   -0.087628
C       1.321321    2.928503   -1.143044
C       0.976665    4.219859   -1.035250
C       1.058942    4.977746   -2.336801
C       1.532518    3.924392   -3.357726
C       1.682587    2.628270   -2.553678
O       2.031199    1.548836   -2.978235
H       0.100554    0.438608   -1.236072
H       1.352128    2.278244    0.922778
H       2.281927    1.274746   -0.227150
H       0.670035    4.703328   -0.112856
H       0.085945    5.411323   -2.597849
H       1.751368    5.823990   -2.252766
H       0.821313    3.765124   -4.173288
H       2.490577    4.176143   -3.821629
