22

C       0.051463    1.543427    0.020242
C       0.009285    0.015674    0.032869
O       0.692751   -0.510165    1.170445
C      -1.422519   -0.529538   -0.061772
C      -1.466498   -2.065430   -0.150177
C      -2.864664   -2.621488   -0.114203
C      -3.683247   -2.521594    1.146718
N      -3.289559   -3.162381   -1.192420
O      -4.609431   -3.632527   -1.049990
H       1.082720    1.895350    0.110162
H      -0.374721    1.945229   -0.904544
H      -0.525698    1.955686    0.858029
H       0.584735   -0.363379   -0.821474
H       0.281995   -0.131133    1.955902
H      -1.987041   -0.181701    0.815884
H      -1.919006   -0.097806   -0.939303
H      -0.986529   -2.393313   -1.077056
H      -0.886019   -2.473865    0.685859
H      -4.544631   -1.860791    1.000575
H      -4.088820   -3.502812    1.410420
H      -3.087781   -2.142654    1.979846
H      -4.773269   -4.029452   -1.911545
