23

C       0.502242    1.542295   -0.310915
C      -0.034065    0.162301    0.095605
C       0.183445   -0.864179   -1.035497
C       1.500018   -1.575417   -0.703051
O       2.092505   -2.332764   -1.427530
C       1.927919   -1.155613    0.704317
C       0.689318   -0.482761    1.335119
C       1.063997    0.524148    2.428369
C      -0.227997   -1.560112    1.947682
H       1.572914    1.515127   -0.545444
H      -0.016064    1.895719   -1.208220
H       0.351083    2.288772    0.473070
H      -1.100661    0.269876    0.322448
H      -0.605602   -1.624448   -1.066182
H       0.228813   -0.424835   -2.036024
H       2.318654   -2.007826    1.267134
H       2.755979   -0.442351    0.595564
H       1.766130    1.280377    2.066723
H       0.177296    1.042143    2.811879
H       1.536316    0.013004    3.274327
H       0.274814   -2.074059    2.773926
H      -1.146044   -1.110976    2.341705
H      -0.518083   -2.322085    1.217166
