23

C      -0.063536    1.612901   -0.044875
C      -0.025375    0.105675    0.161159
O       0.246686   -0.144353    1.530674
C      -1.337603   -0.566247   -0.234311
O      -1.208333   -1.941982    0.087900
C      -2.389749   -2.687433   -0.058140
C      -2.848354   -3.109039   -1.483417
C      -3.183770   -4.507073   -0.892837
C      -2.259976   -4.177033    0.312865
H       0.884301    2.055705    0.271480
H      -0.227156    1.860885   -1.098217
H      -0.863562    2.061879    0.552241
H       0.771195   -0.328181   -0.467549
H       0.058712   -1.081640    1.665037
H      -2.170787   -0.120688    0.333592
H      -1.539126   -0.430743   -1.307923
H      -3.212453   -2.202441    0.490098
H      -3.649074   -2.541940   -1.963447
H      -1.984683   -3.154385   -2.153567
H      -4.232951   -4.583306   -0.595286
H      -2.930389   -5.381150   -1.495021
H      -1.234025   -4.511172    0.134581
H      -2.569536   -4.486053    1.313374
