17

C      -0.102346    1.458400    0.011289
C      -0.008489    0.008441    0.002807
C       0.083832   -1.196344   -0.004632
C       0.131548   -2.605689   -0.011890
C       1.236359   -3.381703   -0.022394
C       0.877984   -4.811339   -0.027687
O       1.636277   -5.754606   -0.037000
C      -0.659073   -4.892557   -0.018744
C      -1.147435   -3.434807   -0.008824
H       0.889136    1.923186    0.004335
H      -0.650811    1.821024   -0.865328
H      -0.633957    1.811703    0.901979
H       2.260605   -3.034123   -0.026700
H      -0.994413   -5.450656   -0.897616
H      -0.983643   -5.458869    0.858933
H      -1.751097   -3.190768    0.872031
H      -1.760845   -3.182169   -0.880485
