13

N      -0.021759    1.230296    0.419449
C      -0.045559    0.035377    0.003071
O       1.110114   -0.555532   -0.497121
N       1.183384   -1.858335   -0.976152
C       0.092782   -2.542640   -0.943131
C      -1.169314   -2.064918   -0.456080
C      -1.257351   -0.796820    0.014387
C      -2.460357   -0.243109    0.513398
C      -3.499706    0.197248    0.931095
H       0.913683    1.628543    0.324404
H       0.195280   -3.553047   -1.326164
H      -2.033125   -2.717759   -0.469094
H      -4.406057    0.606610    1.304352
