20

C       0.105499    1.592527   -0.003753
C       0.024120    0.061714    0.013022
C       0.581541   -0.525439   -1.293805
N       0.662230   -1.975305   -1.241968
C       0.981681   -2.732199   -0.144061
O       1.069236   -3.946160   -0.203915
C       1.181578   -1.976027    1.132240
C       2.194140   -0.841761    1.198495
C       0.724763   -0.535697    1.221741
H       1.146653    1.929767   -0.049930
H      -0.424948    2.010630   -0.865997
H      -0.341522    2.016940    0.900381
H      -1.032541   -0.232614    0.074012
H      -0.075730   -0.246739   -2.123644
H       1.562201   -0.073651   -1.510503
H       0.589997   -2.502122   -2.099076
H       1.098685   -2.615123    2.002425
H       2.755621   -0.744667    2.120521
H       2.770964   -0.619770    0.307742
H       0.311749   -0.226389    2.177970
