23

C       0.174375    0.924626    1.667846
C      -0.233455    0.748696    0.200401
C      -1.480972   -0.115656    0.036089
C      -2.023580   -0.494204   -1.402846
C      -1.280689   -0.021190   -2.648043
C      -1.944715   -1.979369   -1.016022
C      -0.535893   -2.363145   -0.611548
C      -1.408195   -1.617719    0.358388
O      -1.799274   -2.164207    1.572154
H       1.061329    1.558637    1.763597
H      -0.631316    1.383800    2.251056
H       0.407722   -0.039095    2.134443
H      -0.416724    1.734440   -0.246856
H       0.604715    0.315505   -0.358397
H      -2.298826    0.323145    0.618553
H      -3.070383   -0.184141   -1.479617
H      -0.232957   -0.336721   -2.653836
H      -1.749807   -0.427607   -3.550808
H      -1.298522    1.071160   -2.729417
H      -2.672153   -2.737002   -1.281915
H      -0.421289   -3.415816   -0.371986
H       0.337283   -1.914089   -1.078146
H      -1.017886   -2.261131    2.126626
