27

C       0.204771    1.538271    0.286058
C       0.041217    0.050767   -0.047833
C       0.679090   -0.456431   -1.351813
C       0.360742    0.329129   -2.604788
C       1.744917    0.394010   -2.006616
C       0.823277   -2.004127   -1.424432
C      -0.494359   -2.686987   -0.997702
C       1.156146   -2.512806   -2.842691
C       1.961586   -2.453592   -0.482956
H       1.248346    1.800010    0.484734
H      -0.159499    2.191176   -0.513722
H      -0.368869    1.779938    1.186342
H       0.442203   -0.523098    0.795712
H      -1.030820   -0.178865   -0.079258
H       0.236376   -0.194506   -3.544228
H      -0.275511    1.202817   -2.509652
H       2.050845    1.313591   -1.522816
H       2.549938   -0.100459   -2.538192
H      -1.334290   -2.335198   -1.606835
H      -0.418149   -3.771606   -1.130199
H      -0.737908   -2.503078    0.051863
H       2.048214   -2.041074   -3.264974
H       1.349579   -3.589939   -2.805364
H       0.325366   -2.357811   -3.536971
H       1.789233   -2.141710    0.551275
H       2.053463   -3.545243   -0.483815
H       2.922171   -2.035525   -0.801003
