19

C      -0.096836    1.505659   -0.014090
C       0.113054    0.004483    0.066149
O       0.576829   -0.442784   -1.207780
C       0.771566   -1.824332   -1.307364
C       0.907006   -2.266141   -2.768324
O       1.680257   -3.463937   -2.724835
C       2.691299   -3.291362   -1.747647
C       2.114946   -2.316181   -0.722410
O       2.627380   -1.961195    0.306032
H       0.844311    2.012858   -0.244067
H      -0.821455    1.754325   -0.794790
H      -0.469966    1.885676    0.941548
H       0.843151   -0.251715    0.841864
H      -0.832037   -0.509442    0.309091
H      -0.041392   -2.386715   -0.815739
H      -0.041711   -2.501204   -3.252464
H       1.413432   -1.471040   -3.337230
H       2.942037   -4.259155   -1.303894
H       3.612606   -2.858161   -2.172254
