17

C      -0.049945    1.576151    0.040533
C       0.010246    0.047987   -0.022037
C      -1.388557   -0.576518   -0.094487
N       0.867363   -0.422179   -1.121938
C       1.821577   -1.261527   -0.623201
C       1.849090   -1.319829    0.735126
C       0.753247   -0.508074    1.233893
O       0.406353   -0.254273    2.371145
H       0.954998    2.004996    0.004592
H      -0.631677    1.985757   -0.791864
H      -0.518768    1.872838    0.982674
H      -1.950195   -0.191821   -0.953270
H      -1.328878   -1.666386   -0.172636
H      -1.937113   -0.330210    0.818749
H       0.475925   -0.582882   -2.037004
H       2.477292   -1.777602   -1.315274
H       2.559640   -1.856629    1.343439
