15

C       0.019569    1.451943    0.036917
C       0.056431   -0.035440   -0.035319
N      -0.111838   -0.760643   -1.137440
C      -0.154227   -2.031245   -0.672724
C      -0.013729   -2.111039    0.663365
N       0.176782   -0.830407    1.103118
O       0.245641   -3.380543    1.102948
C      -0.160758   -4.127863   -0.085513
O      -0.040609   -3.287402   -1.238625
H       0.789176    1.845527    0.710270
H       0.195596    1.851755   -0.963106
H      -0.950886    1.831019    0.382951
H       0.209721   -0.497755    2.052196
H       0.489555   -4.996162   -0.192259
H      -1.215263   -4.413256    0.047813
