16

O      -0.691955    0.306874    0.067526
C      -0.269624    1.412417   -0.138956
C       1.167563    1.835504    0.047425
C       1.461573    2.787828    1.290997
C       2.372286    1.660087    1.745648
C       3.310940    1.019375    2.518125
C       3.548378   -0.225769    1.846753
C       2.769392   -0.298911    0.702728
N       2.059980    0.869270    0.681586
H      -0.927675    2.238648   -0.495456
H       1.542654    2.245281   -0.900229
H       1.938579    3.733752    1.023238
H       0.588950    2.991312    1.918629
H       3.775321    1.357568    3.430525
H       4.219769   -1.001531    2.184484
H       2.659015   -1.072617   -0.038048
