21

C       0.280699    0.703781    0.715950
O       0.107903   -0.431760   -0.098227
C       0.528351   -0.259401   -1.444131
C       2.054634   -0.390057   -1.603826
C       2.333342   -1.916020   -1.648067
C       0.948774   -2.611778   -1.841739
C      -0.006542   -1.458408   -2.230227
C       1.002105   -3.680063   -2.904689
O       0.702830   -4.836435   -2.759452
H       1.337563    0.985931    0.834265
H      -0.262212    1.574702    0.315960
H      -0.123658    0.458553    1.701071
H       0.147781    0.699244   -1.828308
H       2.359064    0.086751   -2.541623
H       2.598472    0.114114   -0.801116
H       3.017014   -2.160731   -2.468520
H       2.805081   -2.275240   -0.731413
H       0.614291   -3.072749   -0.910880
H      -1.050921   -1.672416   -1.994912
H       0.068221   -1.245674   -3.304441
H       1.360148   -3.300678   -3.895005
