15

N       0.014210   -1.172309    0.005285
C      -0.004334   -0.015159    0.013829
C      -0.044927    1.411174    0.053933
C      -0.699553    2.340201    1.127039
C      -0.940235    3.339861    0.024127
C       0.369647    3.355088    0.810055
C       1.200091    2.374893   -0.078325
N       0.876091    2.582364   -1.503604
C      -0.530303    2.354839   -1.116629
H      -1.240676    2.112524    2.033329
H      -1.633128    4.168764   -0.004425
H       0.706635    4.195970    1.399421
H       2.219971    2.111600    0.194633
H       1.077387    3.517686   -1.857137
H      -1.246381    2.071422   -1.885323
