23

C      -0.038738    1.504147    0.010634
C       0.030827   -0.006997    0.001871
O       0.693750   -0.417391   -1.172018
C       0.801990   -1.831746   -1.246083
C       1.548344   -2.407914   -0.026136
C       1.455979   -3.937900   -0.033360
C       3.015745   -1.951950   -0.038408
C       0.826612   -1.844886    1.214580
O       0.717047   -0.429832    1.157810
H       0.973522    1.915576    0.002898
H      -0.573950    1.857837   -0.873324
H      -0.556457    1.848327    0.908654
H      -0.981987   -0.459746    0.009579
H      -0.204949   -2.279662   -1.309952
H       1.331210   -2.054777   -2.177814
H       1.938847   -4.355329   -0.923814
H       1.956527   -4.364727    0.842763
H       0.415316   -4.281039   -0.024766
H       3.082854   -0.862465   -0.033384
H       3.549421   -2.332798    0.839348
H       3.531728   -2.323555   -0.930585
H      -0.178891   -2.293575    1.293800
H       1.374350   -2.077794    2.133098
