25

C      -0.074381    1.566648   -0.037374
C       0.011118    0.038263   -0.027372
C       0.719875   -0.537506   -1.250859
C       0.877258   -2.061462   -1.196783
C       1.486017   -2.590295   -2.502678
C       0.699905   -2.062376   -3.709939
C       0.553631   -0.537588   -3.633557
C      -0.318230    0.039182   -4.739258
O      -0.036069   -0.154508   -2.395620
H       0.924160    2.018424   -0.028918
H      -0.591721    1.914729   -0.934567
H      -0.614743    1.937693    0.838851
H       0.541224   -0.305633    0.869361
H      -0.997025   -0.392286    0.016876
H       1.727555   -0.085100   -1.326555
H       1.499689   -2.337956   -0.337876
H      -0.113084   -2.508297   -1.038731
H       2.530533   -2.257153   -2.576715
H       1.507659   -3.685406   -2.503528
H       1.193734   -2.340282   -4.648340
H      -0.304156   -2.506301   -3.726013
H       1.562857   -0.089407   -3.696515
H      -1.326040   -0.385133   -4.690022
H      -0.399213    1.124611   -4.635483
H       0.105963   -0.186889   -5.722365
