17

N      -0.170924    1.117648   -0.611722
C      -0.093181   -0.065525   -0.179747
O      -1.193341   -0.849253   -0.166663
C      -0.988226   -2.208914    0.236591
C      -2.374461   -2.879439    0.287511
C      -2.345029   -3.877770   -0.894491
C      -1.118931   -3.418857   -1.693644
O      -0.221234   -2.907427   -0.700348
H       0.736331    1.572999   -0.532503
H       0.804370   -0.560032    0.212336
H      -0.432656   -2.219539    1.180375
H      -2.533444   -3.378833    1.244926
H      -3.144155   -2.115268    0.170731
H      -2.197074   -4.899229   -0.533700
H      -3.261884   -3.858747   -1.487301
H      -0.599938   -4.220463   -2.222705
H      -1.378871   -2.628899   -2.410419
