13

O       0.563244    1.504309    1.648007
C       0.100093    1.629020    0.546091
C       0.870035    1.238135   -0.649479
N       1.514141    0.916865   -1.553876
C      -1.269059    2.178802    0.276532
N      -2.072543    2.565967    1.177973
C      -3.278449    3.020570    0.467202
C      -2.964580    2.800706   -1.037781
O      -1.622413    2.244942   -1.027861
H      -4.141472    2.442298    0.811597
H      -3.470876    4.069326    0.713763
H      -3.623486    2.079350   -1.526078
H      -2.942450    3.722220   -1.623746
