21

C      -0.161939    1.448520    0.170602
C       0.042246   -0.028468    0.094560
C      -0.757670   -1.089359    0.794807
C       0.754950   -1.061996    0.955559
C       1.356163   -1.534424   -0.368088
O       0.583101   -0.564368   -1.122545
C       1.504397   -0.994731    2.235651
C       0.828255   -0.812438    3.573335
C       1.448996   -2.139280    3.228546
H       0.760119    1.984699   -0.074948
H      -0.937892    1.767001   -0.535061
H      -0.478760    1.739258    1.176156
H      -1.317795   -0.752090    1.661057
H      -1.238298   -1.872975    0.213740
H       2.429361   -1.325402   -0.457503
H       1.155643   -2.566348   -0.682312
H       2.476603   -0.514739    2.144934
H       1.324195   -0.184143    4.304814
H      -0.253790   -0.755770    3.604191
H       0.778084   -2.960675    3.001702
H       2.365160   -2.431881    3.729141
