22

C      -0.787492    1.791208   -0.254258
O      -0.788148    0.599766    0.496566
C      -1.547213   -0.461426   -0.062410
C      -0.962733   -1.038888   -1.365997
O       0.311713   -1.620822   -1.225670
C      -1.739682   -1.515599    1.031819
N      -1.037828   -2.815759    0.907310
C      -0.709349   -1.920810    2.031818
C       0.698115   -1.380197    2.106161
H      -0.314553    2.557173    0.365698
H      -0.219449    1.704872   -1.190574
H      -1.811675    2.117294   -0.498561
H      -2.548959   -0.072555   -0.324037
H      -1.702772   -1.755604   -1.760497
H      -0.871361   -0.241314   -2.111310
H       0.173864   -2.364776   -0.615144
H      -2.763772   -1.572976    1.393766
H      -1.636158   -3.584469    1.192142
H      -1.123807   -2.212819    2.996612
H       1.062537   -1.102979    1.117219
H       0.729343   -0.492259    2.743767
H       1.364151   -2.137042    2.535881
