23

C       0.125382    1.510740   -0.091351
C       0.019432    0.019321   -0.010274
C      -1.085091   -0.739649    0.080319
C      -2.513650   -0.291113    0.144005
C      -0.749586   -2.209245    0.063412
C      -1.537234   -3.177453    0.915699
C      -0.126094   -2.669484   -1.242691
C       0.759202   -2.261879   -0.089131
C       1.278669   -0.830776   -0.052346
H       0.763331    1.903601    0.711705
H       0.590731    1.825296   -1.034910
H      -0.845137    2.007459   -0.018575
H      -2.609202    0.797047    0.138275
H      -3.088100   -0.683961   -0.705271
H      -3.008258   -0.662818    1.050053
H      -2.583289   -3.243772    0.594240
H      -1.112494   -4.184294    0.852941
H      -1.532143   -2.879444    1.970811
H      -0.169497   -3.730155   -1.473106
H      -0.199063   -2.016256   -2.106969
H       1.331719   -3.040914    0.402151
H       1.905975   -0.585864   -0.921041
H       1.905502   -0.650528    0.833364
