17

C      -0.054589   -1.242661    0.095794
C      -0.034933   -0.041692    0.075437
C      -0.004305    1.416063    0.037135
C       1.396213    1.990953   -0.035653
C       1.703360    3.523808   -0.001023
C       3.021843    2.890444    0.531578
O       2.195681    1.876018    1.192246
C       3.522128    2.125856   -0.710925
C       2.407464    1.507766   -1.100830
H      -0.070312   -2.303859    0.125027
H      -0.567580    1.776407   -0.833971
H      -0.501630    1.826694    0.923550
H       1.725068    4.078159   -0.941475
H       1.140146    4.046028    0.777029
H       3.724053    3.401991    1.187443
H       4.519259    2.124758   -1.125340
H       2.207434    0.834727   -1.920940
