17

C      -0.011669    1.568656   -0.054678
C      -0.084243    0.071405    0.083141
O       1.140605   -0.662550   -0.098929
C       0.560502   -0.650715    1.186160
C       1.276699   -0.182120    2.441841
C       0.335400   -0.193077    3.573689
N       0.926804   -1.496016    3.154058
C       0.201194   -1.902753    1.948273
N      -0.390401   -2.965507    1.645930
H       0.858360    1.970491    0.470952
H       0.062312    1.852531   -1.109282
H      -0.914905    2.032492    0.355684
H      -0.944965   -0.414571   -0.377668
H       2.282615    0.215885    2.481215
H       0.692767    0.127435    4.547207
H      -0.723556   -0.021409    3.396180
H      -0.368265   -3.626422    2.427071
