14

O       0.079352    1.396913    0.006044
C       0.061331   -0.003845    0.028102
C      -1.406392   -0.552617    0.008146
C      -2.097103   -0.083345   -1.195384
C      -2.610275    0.347465   -2.192529
C      -1.417326   -2.007940    0.113713
C      -1.380036   -3.210497    0.214330
C      -1.346774   -4.570995    0.326623
N      -1.316940   -5.728136    0.422810
H      -0.313276    1.683418   -0.827555
H       0.610882   -0.451370   -0.811162
H       0.535549   -0.318368    0.960984
H      -1.908955   -0.132442    0.890576
H      -3.091536    0.707468   -3.069037
