18

C      -1.222214   -0.214626   -0.323356
N       0.242164   -0.254129   -0.190675
C       0.731864   -0.688466    1.049249
C       1.152981   -1.932977    1.489761
O       1.115442   -3.059680    0.714045
C       1.584393   -1.733950    2.812134
N       1.436994   -0.457749    3.180414
N       0.933345    0.162946    2.100925
C       0.639745    1.576986    2.138785
H      -1.633601    0.512775    0.382263
H      -1.476343    0.118689   -1.333487
H      -1.705760   -1.184111   -0.136157
H       0.638473   -0.832662   -0.922518
H       1.607897   -3.755546    1.158407
H       1.991117   -2.454052    3.508304
H       1.372592    2.063184    2.783811
H       0.707891    1.972904    1.123597
H      -0.364129    1.771918    2.533963
