19

O       0.114234    0.276628    1.090125
C       0.088072    1.332773    0.488829
N       1.180602    1.962605   -0.003287
C       2.528393    1.406573    0.165327
C       3.395652    2.286350   -0.748693
C       2.645270    3.610982   -0.761667
C       3.183625    4.823732   -0.096941
N       3.040380    4.759336   -1.567211
C       1.168321    3.238695   -0.719040
H      -0.848034    1.890232    0.282133
H       2.840266    1.480042    1.214453
H       2.537472    0.347614   -0.103563
H       4.425377    2.377549   -0.395074
H       3.420825    1.867216   -1.762232
H       2.513559    5.524390    0.394184
H       4.180636    4.771330    0.333622
H       3.945150    4.594591   -2.002161
H       0.779027    3.130043   -1.740601
H       0.560785    3.988563   -0.203646
