18

C       0.064293    1.607266   -0.053108
C       0.077328    0.087912   -0.064988
C       0.670382   -0.722931   -1.216328
C       2.194139   -0.883285   -1.099106
C       3.030556    0.045317   -0.246573
C       2.202386    0.138815    1.049324
O       2.429719    0.835128    1.996441
N       1.007806   -0.673995    0.908953
C       1.280468   -1.645371   -0.192286
H       1.012851    2.049977   -0.365249
H      -0.711363    1.959538   -0.741102
H      -0.172480    1.980098    0.948039
H      -0.930456   -0.277198    0.155762
H       0.165732   -0.980434   -2.140450
H       2.648529   -1.409713   -1.930910
H       4.020517   -0.381507   -0.047399
H       3.187848    1.054883   -0.637802
H       1.221859   -2.712941   -0.028413
