17

C      -0.236925    1.295113   -0.343946
C       1.163289    1.175870    0.173133
C       0.281638   -0.059051    0.107695
C      -0.227613   -0.716520    1.334979
N      -0.328132   -2.052493    1.298498
C      -0.785233   -2.655992    2.396874
C      -1.145934   -1.948097    3.537200
N      -1.051606   -0.616129    3.589541
C      -0.596015   -0.014488    2.494843
H      -0.978400    1.780684    0.281246
H      -0.388812    1.438349   -1.407795
H       1.985402    1.236146   -0.531041
H       1.387107    1.579261    1.154768
H       0.508239   -0.777249   -0.671559
H      -0.865461   -3.739982    2.363733
H      -1.516450   -2.456153    4.423222
H      -0.519640    1.069393    2.538368
