14

O      -0.012115    1.469803    0.119398
C       0.034611    0.093090    0.028194
C      -0.351362   -0.809124    1.195355
O      -1.049035   -0.171364    2.251950
C      -2.385217   -0.076832    1.830009
O      -2.368858    0.045634    0.418948
C      -1.244810   -0.714257   -0.013185
C      -3.166710   -1.277362    2.240539
N      -3.776546   -2.201853    2.567564
H      -0.943441    1.721437    0.167471
H       0.858862   -0.260749   -0.585350
H       0.214135   -1.687771    1.481553
H      -2.838258    0.820541    2.259122
H      -1.468836   -1.507360   -0.716414
