23

C       0.331047    1.487901   -0.317827
C       0.138285    0.023392    0.021102
O       0.974413   -0.842998   -0.781741
C       1.387140   -1.604321    0.379057
C       2.885615   -1.841763    0.417070
C       3.355663   -2.688001   -0.760644
O       4.760169   -2.862958   -0.635742
C       0.711759   -0.581855    1.336205
C       1.605247    0.296177    2.204521
H       1.371339    1.798211   -0.191538
H       0.050437    1.663047   -1.361410
H      -0.304242    2.118695    0.313435
H      -0.920667   -0.243746   -0.116014
H       0.866676   -2.575559    0.393959
H       3.425898   -0.890286    0.398514
H       3.150810   -2.352962    1.351107
H       2.831603   -3.658416   -0.753905
H       3.093307   -2.178437   -1.698840
H       5.072747   -3.331020   -1.415237
H      -0.059344   -1.036576    1.964112
H       2.399706    0.783918    1.634013
H       1.017213    1.080999    2.691869
H       2.080591   -0.295716    2.993575
