18

C      -0.604465    1.564190   -0.075687
C      -0.105281    0.139320   -0.019304
C      -1.112153   -0.988324    0.299897
O      -0.254096   -1.528739    1.337216
C       0.713533   -0.493805    1.146483
C       1.836150   -0.936104    0.145786
C       1.001346   -0.296759   -1.022682
C       3.141914   -0.342522    0.366113
N       4.166247    0.160528    0.555284
H       0.226544    2.276994   -0.082460
H      -1.193196    1.734337   -0.985172
H      -1.242574    1.796875    0.783245
H      -2.064960   -0.642313    0.719236
H      -1.311887   -1.714753   -0.497416
H       1.017976   -0.001714    2.073123
H       1.922923   -2.024164    0.107350
H       0.696214   -0.993632   -1.806384
H       1.514045    0.548790   -1.484210
