17

O      -0.095216    1.145783    1.238032
C      -0.019754    0.128631    0.258631
C       0.879285   -1.003998    0.792683
N       0.040110   -2.037170    1.425041
C      -0.924591   -1.511124    2.408049
C      -1.348925   -1.785635    1.012031
C      -1.382579   -0.613923    0.027445
C      -2.521881    0.284327    0.168462
N      -3.390874    1.038231    0.286520
H      -0.754636    1.795373    0.964433
H       0.351701    0.536047   -0.690627
H       1.416891   -1.476475   -0.035912
H       1.612975   -0.607548    1.498796
H      -1.193896   -2.219228    3.185821
H      -0.833632   -0.477244    2.722026
H      -1.964012   -2.647948    0.774707
H      -1.392405   -1.015798   -0.992822
