20

C       0.103511    1.608172   -0.379464
C       0.232062    0.115029   -0.150553
C       1.475434   -0.720084   -0.379659
C       2.731788    0.001728    0.126938
C       2.138642   -0.007143    1.579729
C       2.109878    1.251507    2.440674
C       0.848424   -0.618932    1.013070
O       0.147831   -1.607765    1.693236
H       1.034366    2.145919   -0.189675
H      -0.180149    1.807613   -1.419032
H      -0.668850    2.046793    0.262661
H      -0.648556   -0.437509   -0.478367
H       1.473752   -1.557834   -1.066496
H       3.643481   -0.592215    0.036277
H       2.923094    0.988204   -0.307437
H       2.638177   -0.805285    2.139770
H       1.633424    2.095126    1.934541
H       1.560679    1.069508    3.371769
H       3.124919    1.559074    2.716173
H      -0.630990   -1.207633    2.093480
