14

C       0.066641    1.485994   -0.006526
C      -0.061114   -0.001954    0.037335
N      -0.291064   -0.667611   -1.071859
O      -0.362487   -2.023882   -0.689437
C      -0.156447   -2.091877    0.629610
O      -0.218044   -3.299940    1.221879
C       0.199845   -4.418363    0.522732
O       0.088711   -5.500191    0.995639
C       0.038572   -0.863957    1.169450
H       1.046595    1.803675    0.363531
H      -0.054826    1.841596   -1.031236
H      -0.693133    1.959376    0.623435
H       0.624709   -4.168007   -0.458915
H       0.227845   -0.617117    2.199417
