19

O      -0.260292    1.482770   -0.234757
C      -0.042273    0.123626    0.011692
C      -0.407469   -0.532694    1.321743
C      -1.268778    0.230718    2.320967
C      -2.499465    0.745270    1.537416
C      -2.610838   -0.150508    0.282799
C      -3.147833    0.566064   -0.942030
O      -3.719413    1.625092   -0.926115
C      -1.234223   -0.787544    0.067877
H       0.374538    1.992273    0.279592
H       0.836302   -0.283832   -0.489721
H       0.270370   -1.288588    1.705303
H      -1.573101   -0.462199    3.113383
H      -0.728331    1.048122    2.812089
H      -3.410507    0.716824    2.139807
H      -2.357814    1.776749    1.214944
H      -3.315081   -0.979194    0.458758
H      -2.994672    0.013422   -1.898492
H      -1.186347   -1.729094   -0.468156
