16

C       0.044487   -1.133905    0.209915
C       0.000003    0.051284    0.009970
C      -0.134815    1.460238   -0.196740
C      -1.384515    2.191265    0.361106
C      -1.067972    3.607079   -0.077250
C      -0.076597    3.580444   -0.995720
C       1.334618    3.667253   -0.408480
N       1.294560    2.130679   -0.406174
C       0.241198    2.152795   -1.445051
H       0.101714   -2.180516    0.379472
H      -2.277413    1.694231   -0.042195
H      -1.468627    2.161132    1.452690
H      -1.136115    4.414308    0.647058
H       2.156482    3.931345   -1.081443
H       1.451352    4.158974    0.560424
H       0.370736    1.740659   -2.439513
