15

O      -0.022372    1.422742    0.006654
C      -0.003630    0.005229    0.002006
C      -1.406856   -0.495975    0.012441
C      -2.524090    0.238792    0.023809
N      -3.669354   -0.576128    0.031184
C      -3.342555   -1.918519    0.024784
O      -4.117562   -2.846305    0.028811
C      -1.800842   -1.952619    0.011781
H       0.886427    1.735062   -0.000007
H       0.525908   -0.384334   -0.886409
H       0.541040   -0.389969    0.878701
H      -2.620600    1.313238    0.027593
H      -4.621221   -0.250782    0.040160
H      -1.457939   -2.504545   -0.871662
H      -1.443215   -2.509278    0.886373
