17

O      -0.034741    1.398730   -0.072876
C      -0.010230    0.023498    0.031599
C       0.255800   -0.675907    1.407168
C      -0.588361   -1.845571    0.842706
C      -1.331066   -0.814285   -0.042836
O       0.197917   -2.742372    0.067903
C       1.030988   -2.128221   -0.903031
C       0.946784   -0.605306   -0.955635
O       1.595111    0.063748   -1.728542
H       0.592328    1.623681   -0.780127
H       1.284347   -0.880647    1.713748
H      -0.272652   -0.137934    2.197350
H      -1.161276   -2.467304    1.529028
H      -2.120556   -0.299110    0.508855
H      -1.703693   -1.141175   -1.016547
H       2.079088   -2.398283   -0.715511
H       0.779886   -2.510936   -1.901596
