18

C      -0.073113    1.562493   -0.087541
C       0.114416    0.059355   -0.004230
N       1.332452   -0.576931   -0.719173
C       2.142004   -0.137193    0.513668
C       0.841876   -0.666971    1.168258
C       0.463207   -0.740748    2.627100
C       0.997195   -1.809992    0.136000
H      -0.239935    1.857476   -1.128908
H      -0.959802    1.854908    0.485578
H       0.772242    2.140139    0.292566
H      -0.810859   -0.432612   -0.329800
H       3.055092   -0.722564    0.657644
H       2.365442    0.929776    0.551629
H       0.428295    0.257460    3.077338
H      -0.523040   -1.200767    2.754420
H       1.186936   -1.337572    3.193026
H       0.096035   -2.338154   -0.190919
H       1.840737   -2.496376    0.253420
