14

O       0.290219    1.298145   -0.411588
C       0.013691   -0.007111    0.020374
C       0.108648   -0.281878    1.560419
N      -1.314088   -0.622357    1.526631
C      -1.510599   -0.271674    0.120964
C      -2.206840   -1.012065    2.460898
O      -3.388990   -1.192670    2.249706
H       1.243280    1.400285   -0.498131
H       0.546433   -0.756680   -0.576019
H       0.769248   -1.098471    1.871452
H       0.340209    0.623418    2.133905
H      -2.106601    0.634706   -0.027628
H      -1.914853   -1.080111   -0.494236
H      -1.729716   -1.160246    3.452247
