17

C       0.005477    1.481693    0.033534
C       0.030195   -0.014430    0.009413
C      -0.927624   -0.860593    0.847431
C      -1.942366   -1.809896    0.470972
N      -2.800422   -2.546414    0.222691
C       0.574029   -1.059216    0.955985
C       1.220643   -1.721649   -0.268797
C       0.320918   -2.044966   -1.392276
N       0.719291   -0.635697   -1.191171
H       0.999361    1.878034   -0.193719
H      -0.688500    1.863859   -0.723493
H      -0.309122    1.859766    1.010455
H      -1.279566   -0.255374    1.681226
H       1.079142   -0.946675    1.906848
H       2.271550   -1.990379   -0.265974
H       0.799126   -2.460021   -2.275545
H      -0.701695   -2.365604   -1.253885
