15

C      -0.223731   -1.196201    0.059781
C      -0.097801   -0.001241    0.067369
C       0.019176    1.428230    0.056577
C       0.512375    2.245593    1.224234
N       1.515050    1.461097    1.969919
C       2.444733    1.569169    0.796620
C       3.091497    0.327262    0.362785
N       3.658222   -0.616545    0.012641
C       1.330112    2.200809   -0.053521
H      -0.307739   -2.254749    0.059427
H      -0.763587    1.942731   -0.497589
H      -0.065027    3.037801    1.684450
H       1.885797    1.968077    2.765845
H       3.231295    2.311934    0.967853
H       1.499712    2.923537   -0.840017
