18

C      -0.044739    1.422015    0.008277
N      -0.013870   -0.018046   -0.095072
C      -1.202184   -0.834095    0.053547
C      -0.715998   -2.245886   -0.379321
C       0.791006   -2.213452   -0.036601
C       1.159258   -0.730970   -0.105509
O       2.275116   -0.256843   -0.141351
C      -1.467908   -3.334443    0.222977
C      -2.087193   -4.229236    0.733354
H       0.980463    1.780555   -0.098458
H      -0.668790    1.859486   -0.779736
H      -0.439437    1.746366    0.980269
H      -1.564534   -0.842722    1.091864
H      -2.017100   -0.470893   -0.581596
H      -0.813998   -2.306748   -1.469832
H       0.974220   -2.568667    0.983074
H       1.409863   -2.805208   -0.711841
H      -2.633108   -5.024206    1.177991
