19

C      -0.124852    1.462509    0.021883
C       0.047615   -0.051690    0.028323
C       0.865082   -0.580595   -1.151792
C       2.147817   -0.518562   -0.371651
C       1.227168   -0.557128    0.915403
C       1.164249   -2.099007    0.784453
C       1.555037   -1.889996   -0.684999
C       2.023502   -2.862361   -1.609078
C       2.417622   -3.702420   -2.376672
H       0.832397    1.967682   -0.147671
H      -0.814621    1.779855   -0.767642
H      -0.528895    1.813029    0.977865
H      -0.915916   -0.542476    0.217447
H       0.720011   -0.402962   -2.210105
H       3.126439   -0.120408   -0.595492
H       1.440969   -0.082628    1.871131
H       1.972056   -2.595867    1.327455
H       0.209445   -2.588464    1.007621
H       2.765087   -4.440389   -3.055865
