20

C       0.005757    1.570685    0.128367
C      -0.057210    0.039140   -0.021247
C       0.663517   -0.482533   -1.228176
C       0.145338   -0.871837   -2.445484
N       1.182907   -1.268362   -3.216443
N       2.381044   -1.159229   -2.586364
C       2.067297   -0.690271   -1.381102
N       3.033786   -0.508186   -0.399953
C       4.430793   -0.580709   -0.799066
H       1.040437    1.926927    0.185767
H      -0.458359    2.064790   -0.730736
H      -0.511657    1.900820    1.035178
H       0.362284   -0.427237    0.879938
H      -1.107371   -0.271792   -0.060285
H      -0.873165   -0.903135   -2.802083
H       1.159774   -1.622874   -4.155291
H       2.829632    0.267505    0.212366
H       4.641415   -1.575260   -1.199931
H       4.702529    0.150089   -1.575248
H       5.058233   -0.418718    0.081083
