18

C       0.373434    1.213247   -0.327160
N      -0.301427    0.076732    0.307676
C       0.479883   -0.737052    1.112718
C       0.874777   -2.030592    1.018429
C       1.703400   -2.326647    2.152608
C       1.753296   -1.169653    2.867146
O       2.382475   -0.903298    4.018639
C       2.304763    0.432028    4.508780
O       1.036439   -0.187221    2.282775
H       1.192065    0.837028   -0.947180
H      -0.337382    1.732160   -0.977156
H       0.789392    1.939949    0.386177
H      -1.153895    0.374710    0.769732
H       0.598481   -2.701885    0.220431
H       2.186938   -3.254842    2.405711
H       2.734757    1.143115    3.795453
H       1.268958    0.720439    4.715797
H       2.882613    0.441097    5.433517
