20

N       0.193133    0.781907    0.039300
H       0.817819   -0.022537    0.126164
H       0.767912    1.626883    0.083308
H      -0.270810    0.744164   -0.869009
C      -0.836462    0.825996    1.222016
C      -0.019041    0.974577    2.488261
C       0.831218    2.271802    2.672377
C       0.355971    2.326020    4.155313
C      -0.776958    1.337212    3.797904
C      -2.175270    2.020807    3.535190
O      -2.436801    3.001545    4.237201
O      -2.844355    1.453016    2.629175
H      -1.498965    1.664869    1.027615
H      -1.409804   -0.096458    1.153740
H       0.609359    0.078855    2.612993
H       1.908911    2.202087    2.487237
H       0.425678    3.111760    2.094186
H       1.112099    1.925668    4.837550
H      -0.011458    3.284117    4.523609
H      -0.938463    0.499693    4.481871
