26

C      -0.605673   -0.942729    4.706679
C      -0.731933   -1.978136    3.586631
C      -1.444715   -1.430681    2.340219
C      -1.502936   -2.441449    1.210969
N      -2.538842   -3.477164    1.077799
C      -3.634464   -3.569589    2.028445
C      -2.485800   -2.399544    0.078323
C      -3.560248   -1.327484    0.012323
C      -2.029623   -2.868177   -1.292490
H      -0.091069   -1.357938    5.578798
H      -0.040456   -0.065185    4.372910
H      -1.590184   -0.592879    5.037482
H       0.265770   -2.335496    3.300412
H      -1.272817   -2.858392    3.955573
H      -2.441511   -1.078361    2.622441
H      -0.904433   -0.543995    1.979653
H      -0.510550   -2.827891    0.965639
H      -3.992923   -2.620153    2.451122
H      -4.484900   -4.055631    1.538428
H      -3.324170   -4.209051    2.861923
H      -3.876902   -0.960723    0.989242
H      -3.196545   -0.467306   -0.560529
H      -4.447978   -1.709626   -0.505587
H      -2.874524   -3.259440   -1.871741
H      -1.586540   -2.043975   -1.863831
H      -1.289463   -3.666099   -1.197615
