19

C      -0.071626    1.605775   -0.125496
C       0.004942    0.120452   -0.004107
C       0.086785   -1.020167   -0.953519
O       1.217972   -1.653675   -0.348490
C       0.894104   -0.886239    0.849530
C       2.045887   -0.599935    1.758037
C      -0.429448   -1.561712    1.336904
O      -0.987403   -0.936345    2.477245
C      -1.051194   -0.986614    0.078768
H       0.895241    2.038143   -0.407388
H      -0.798999    1.891595   -0.893194
H      -0.388984    2.063667    0.817520
H      -0.054175   -1.098931   -2.023888
H       2.799170    0.019289    1.262883
H       1.695033   -0.074061    2.651498
H       2.525201   -1.536241    2.066345
H      -0.388647   -2.654922    1.448841
H      -0.539596   -1.289682    3.252581
H      -2.099074   -0.942543   -0.190104
