19

C      -0.269879    1.549960   -0.119843
C      -0.019268    0.052042   -0.018746
O      -1.302266   -0.586120   -0.145151
C       1.185002   -0.645374   -0.762915
C       2.121887   -0.117002    0.351271
O       2.531607    1.226888    0.298328
C       0.837286   -0.587320    1.119490
C       0.987977   -1.870621    0.213645
O      -0.013021   -2.812836    0.053898
H       0.636759    2.135561   -0.005077
H      -0.704203    1.783730   -1.101868
H      -0.999477    1.845542    0.641322
H      -1.756383   -0.188373   -0.895328
H       1.390043   -0.667512   -1.834623
H       2.991132   -0.759867    0.533664
H       2.990691    1.425557    1.120415
H       0.645407   -0.544123    2.193261
H       1.908572   -2.430426    0.400095
H      -0.832887   -2.316040   -0.087238
