20

C       0.032074    1.471996    0.022403
C       0.038836   -0.028532   -0.006793
N      -0.865353   -0.845325    0.843299
C       0.610162   -0.925193    1.017845
C       1.319681   -1.959620    0.104992
C       2.256574   -2.964831    0.711096
C       0.258958   -2.277276   -0.979715
C       0.545666   -0.790956   -1.262812
O       1.943608   -1.035493   -0.877230
H       0.969560    1.862550   -0.387208
H      -0.793246    1.883137   -0.570618
H      -0.070096    1.848703    1.045970
H      -1.238957   -0.242628    1.576907
H       1.076006   -0.578953    1.934030
H       1.706336   -3.641739    1.372690
H       2.747644   -3.557168   -0.065314
H       3.030360   -2.463744    1.302827
H       0.687869   -2.909344   -1.757460
H      -0.739626   -2.589992   -0.683269
H       0.434485   -0.320267   -2.239636
