23

C      -0.126535    1.588975   -0.355521
C      -0.078725    0.080231   -0.086753
C      -1.460919   -0.547518    0.139233
C      -2.183094    0.024125    1.353121
O      -2.280592   -0.395916   -1.060301
C      -2.283263   -1.816312   -1.307646
C      -1.546145   -2.102444    0.012032
C      -0.295402   -2.957659   -0.041759
O      -0.727292   -4.294558   -0.265002
H       0.859094    1.957987   -0.654494
H      -0.831209    1.804757   -1.163634
H      -0.434912    2.156437    0.527338
H       0.387249   -0.410407   -0.947765
H       0.558992   -0.131967    0.781438
H      -2.348121    1.099273    1.243264
H      -3.158848   -0.454292    1.472909
H      -1.599971   -0.143328    2.265931
H      -3.298859   -2.215571   -1.402116
H      -1.716550   -2.079227   -2.211625
H      -2.207742   -2.527817    0.771599
H       0.372005   -2.623417   -0.849884
H       0.263318   -2.871377    0.904512
H       0.051311   -4.849461   -0.368243
