18

O      -0.072475    1.384792    0.016592
C       0.003476   -0.014660    0.006161
C      -1.356915   -0.640788    0.044800
C      -0.534148   -0.657275   -1.253725
N      -0.511460   -2.134565   -1.286983
C       0.650503   -2.819141   -0.620562
C      -0.174269   -2.985033    0.698115
O       0.319893   -2.408988    1.884607
C      -1.297807   -2.168829   -0.000715
H       0.649226    1.722390   -0.524232
H       0.822479   -0.437107    0.581318
H      -2.225070   -0.049468    0.304554
H      -0.647887   -0.078958   -2.165188
H       0.912302   -3.753474   -1.125938
H       1.550141   -2.205608   -0.515433
H      -0.479120   -4.026181    0.867187
H       0.959370   -3.015217    2.271618
H      -2.279096   -2.649174   -0.050751
