21

C      -0.071775    1.639023   -0.032505
C       0.045010    0.122725    0.004111
C       1.119733   -0.681442   -0.755753
C       2.458948   -0.037545   -0.232688
C       2.129734   -0.233504    1.272248
C       1.622946    0.564270    2.527386
C       0.461858   -0.512564    2.630670
C       0.704631   -0.720452    1.130316
O       0.824313   -1.809606    0.156632
H       0.876365    2.154886    0.132350
H      -0.460003    1.961063   -1.005388
H      -0.778336    1.989847    0.727733
H      -0.927082   -0.334957   -0.200478
H       1.040817   -0.953694   -1.808458
H       3.344692   -0.599434   -0.535899
H       2.569675    0.988928   -0.590753
H       2.729886   -1.060655    1.661595
H       2.309229    0.621126    3.373736
H       1.234660    1.560888    2.317031
H       0.776559   -1.366922    3.235410
H      -0.530148   -0.184443    2.950218
