20

C      -0.312629    1.557165    0.020929
C       0.040431    0.081538    0.019910
N       1.016766   -0.436549   -1.014846
C       2.311900    0.328547   -1.013119
C       2.820161   -0.398590    0.243210
C       2.154304    0.134764    1.540994
C       0.834747   -0.593989    1.165072
O       0.133567   -1.256606    2.177574
C       1.605342   -1.361994    0.049872
H       0.538772    2.200645    0.259923
H      -0.695826    1.856267   -0.960658
H      -1.096956    1.756509    0.759299
H      -0.876014   -0.505516   -0.120340
H       2.877019    0.055238   -1.910250
H       2.226147    1.419484   -0.981408
H       3.866452   -0.701767    0.295777
H       2.581961   -0.357110    2.419776
H       2.137168    1.216949    1.707018
H      -0.099716   -0.614392    2.857174
H       1.615550   -2.438978   -0.108743
