18

C       0.030433    1.543521   -0.063697
C       0.030852    0.019950    0.018046
O       0.622397   -0.456915   -1.175809
C       0.901029   -1.845664   -1.160146
C       1.997554   -2.157337   -0.140266
C       1.685992   -1.481388    1.161665
C       0.770629   -0.505417    1.247663
C       0.429681    0.067184    2.510022
N       0.123228    0.546700    3.519491
H       1.055991    1.920415   -0.106196
H      -0.494255    1.856255   -0.969579
H      -0.470444    1.978610    0.804214
H      -1.014070   -0.334975    0.078885
H      -0.008913   -2.418312   -0.919065
H       1.208989   -2.109979   -2.174832
H       2.086036   -3.240180    0.011367
H       2.973414   -1.817302   -0.512823
H       2.207663   -1.809945    2.055484
