17

C      -0.042496    1.571858    0.063926
C      -0.001380    0.038762    0.034539
C       0.798471   -0.516319    1.219526
C      -1.453806   -0.546743    0.014647
C      -2.188055   -0.100347   -1.257880
O      -3.008386    0.774253   -1.277282
C      -1.451379   -2.008354    0.060663
N      -1.455708   -3.164376    0.057623
H       0.975538    1.970914    0.039670
H      -0.590919    1.993951   -0.781808
H      -0.520459    1.931008    0.982213
H       0.487301   -0.285992   -0.893685
H       0.863266   -1.606950    1.192344
H       1.816060   -0.114800    1.204440
H       0.339106   -0.225389    2.171035
H      -2.012329   -0.156254    0.872465
H      -1.871566   -0.637675   -2.177676
