18

C       0.273619    1.002672   -0.673455
O       0.017435   -0.369559   -0.415141
C      -1.333469   -0.667336   -0.101144
C      -1.576745   -2.159574   -0.473829
N      -1.944464   -2.806931    0.791419
C      -1.916012   -1.905541    1.802020
C      -1.656017   -0.635177    1.390089
C      -1.721867    0.512619    2.253055
O      -1.516269    1.673015    1.935340
H       1.342873    1.085554   -0.883529
H      -0.286875    1.349276   -1.556194
H       0.006064    1.634221    0.179281
H      -1.991707    0.000358   -0.673532
H      -2.376324   -2.283479   -1.210126
H      -0.649996   -2.570212   -0.884437
H      -1.814567   -3.792918    0.943464
H      -2.124234   -2.231645    2.815065
H      -2.000197    0.263088    3.304179
