17

O       0.004862   -0.095874    0.182686
C       0.046877    1.095479    0.087173
O      -1.035885    1.913757    0.112510
C      -1.854406    1.818541    1.281358
C      -1.083046    2.429873    2.472977
C      -0.435640    3.729172    2.067075
C       0.682481    3.827224    1.343473
C       1.594199    2.681327    0.962180
O       1.183856    1.794727   -0.121110
H      -2.753932    2.392500    1.049420
H      -2.126689    0.776048    1.473642
H      -1.768437    2.566951    3.314934
H      -0.325677    1.703693    2.794926
H      -0.981041    4.640185    2.302391
H       1.012471    4.812134    1.024975
H       2.551171    3.068523    0.612138
H       1.791871    2.044027    1.833779
