17

C      -0.018007    1.480593   -0.004149
C      -0.039719   -0.022262   -0.015740
N       0.836656   -0.697292   -0.937522
C       0.413679   -1.994609   -1.152585
O       0.970403   -2.847208   -1.790234
N      -0.803103   -2.184567   -0.356923
C      -0.264514   -2.273456    1.077584
C      -0.487859   -0.781574    1.256783
C      -1.299137   -0.806878   -0.028044
H       0.929730    1.865975    0.388049
H      -0.156107    1.875440   -1.015680
H      -0.819377    1.869746    0.630416
H       1.797487   -0.443222   -1.101029
H      -0.948934   -2.880802    1.673253
H       0.750159   -2.677159    1.160945
H      -0.687641   -0.255117    2.182550
H      -2.296200   -0.478863   -0.296426
