15

O      -0.209553    1.544673   -0.016944
C       0.042244    0.163003   -0.052118
C      -1.290893   -0.656912    0.126120
N      -1.058927   -1.188564   -1.225376
C       0.142877   -0.527273   -1.413574
C       0.720618   -0.996548   -2.537863
N      -0.173660   -1.965836   -3.019493
C      -1.293004   -2.157461   -2.186455
O      -2.199232   -2.952627   -2.321507
H       0.601490    2.008588   -0.248883
H       0.834542   -0.122839    0.651173
H      -1.276204   -1.414513    0.912914
H      -2.177641   -0.025960    0.212367
H       1.645471   -0.771862   -3.040046
H      -0.077878   -2.481615   -3.876636
