10

N       0.017470   -1.133098   -0.003406
C       0.001734    0.021931    0.002891
C      -0.017890    1.468433    0.010790
N      -1.216593    2.055145    0.030069
C      -1.164095    3.387333    0.036273
N      -0.053953    4.126118    0.024983
C       1.075823    3.417890    0.005965
N       1.164449    2.087626   -0.002123
H      -2.114084    3.915402    0.051844
H       2.011132    3.971676   -0.003913
