19

C      -0.040582    1.626128   -0.065565
C      -0.221552    0.147007    0.190153
C      -1.406426   -0.485284   -0.521517
O      -1.230145   -0.451016   -1.927131
O       0.967362   -0.670853    0.068304
C       0.349213   -0.555251    1.352075
C       1.145777    0.124965    2.455195
C       2.073098   -0.791078    3.111320
C       2.821965   -1.563471    3.645942
H       0.934553    1.981641    0.269782
H      -0.127294    1.816318   -1.139012
H      -0.820837    2.203650    0.442340
H      -1.544143   -1.514662   -0.159815
H      -2.324749    0.074092   -0.312126
H      -0.406033   -0.918908   -2.107624
H      -0.150058   -1.467621    1.683676
H       1.694730    0.977878    2.045584
H       0.441535    0.526355    3.196766
H       3.493135   -2.238413    4.116393
