16

O       0.106402    1.428296   -0.052923
C      -0.047441    0.064010    0.046182
C      -0.427964   -0.743682    1.254013
C      -1.618125   -0.179676    2.062489
N      -2.037120    1.128758    1.475465
C      -2.483204   -0.157430    0.873045
C      -1.351774   -0.734395   -0.028528
C      -1.591529   -1.773330   -0.962035
C      -1.809412   -2.652283   -1.757227
H      -0.617078    1.802692    0.482039
H       0.721167   -0.440236   -0.536119
H       0.160052   -1.580125    1.610874
H      -1.845103   -0.421351    3.091604
H      -2.806460    1.490335    2.037019
H      -3.532794   -0.388743    0.753601
H      -1.992731   -3.422405   -2.464150
