17

C       0.028094    1.128389   -0.323272
O      -0.217487    0.060915    0.582822
C      -1.394156   -0.615320    0.298220
C      -1.422690   -1.645827   -0.787484
O      -0.183509   -1.978868   -1.365744
C       0.668374   -2.580986   -0.399128
C      -0.149968   -2.773543    0.882262
O       0.190165   -3.413639    1.841827
C      -1.466762   -2.090132    0.665416
H       0.958350    1.603341   -0.005077
H       0.135440    0.758536   -1.349853
H      -0.780968    1.872343   -0.290625
H      -2.310599   -0.048446    0.474509
H      -2.253684   -1.744378   -1.476854
H       1.022278   -3.549342   -0.771032
H       1.534073   -1.943259   -0.186392
H      -2.335475   -2.473495    1.183909
