20

C      -0.096301    1.578734   -0.001794
C       0.009414    0.048680   -0.040775
C      -1.372819   -0.592046    0.065238
C       0.765119   -0.467237   -1.271479
C       2.207958    0.025736   -1.261706
N       2.753014   -0.130535    0.074262
C       2.064808   -0.366322    1.235606
O       2.610492   -0.560878    2.294417
O       0.709024   -0.394228    1.153000
H       0.888392    2.053079    0.006339
H      -0.650481    1.948755   -0.870322
H      -0.624172    1.888918    0.903552
H      -2.001986   -0.288634   -0.777040
H      -1.291686   -1.682304    0.067598
H      -1.861063   -0.283493    0.993337
H       0.747985   -1.562197   -1.251113
H       0.263786   -0.143115   -2.188038
H       2.810358   -0.551854   -1.972069
H       2.255913    1.075733   -1.583665
H       3.750963   -0.119143    0.206514
