18

C      -0.096742    1.563967    0.190696
C       0.104713    0.090035    0.060760
O      -0.827246   -0.800007    0.675549
C       0.562816   -0.957952    0.976266
C       1.258071   -1.718427   -0.203768
N       0.219677   -2.032994   -1.224827
C       0.802985   -0.676448   -1.146848
C       1.506504   -0.022583   -2.303988
O       2.237168   -0.963880   -3.083157
H       0.818059    2.111167   -0.060565
H      -0.892543    1.912025   -0.477793
H      -0.381062    1.813833    1.216308
H       0.866916   -0.927364    2.016039
H       2.198358   -2.251428   -0.163419
H       0.739194   -2.493643   -1.975918
H       0.783944    0.527643   -2.925049
H       2.230734    0.712706   -1.931724
H       1.670952   -1.258432   -3.801805
