17

N       0.025430   -1.127739   -0.157956
C       0.001493    0.025947   -0.091643
C       0.018384    1.482843    0.005880
C       1.460104    2.034160    0.051635
N       2.170905    1.703921   -1.185761
C       3.122559    2.767707   -1.521330
C       2.513112    3.996317   -0.880484
O       1.113729    4.162111   -1.142543
C       1.510750    3.551434    0.089476
H      -0.482755    1.911396   -0.866926
H      -0.536005    1.781255    0.903160
H       1.953171    1.660633    0.965693
H       2.580138    0.779955   -1.173809
H       4.130772    2.628216   -1.094926
H       3.228393    2.861019   -2.608518
H       3.087890    4.911528   -0.774395
H       1.255596    4.089032    0.998537
