15

O      -0.146341    1.499462    0.011971
C      -0.028707    0.102637    0.003085
C      -1.408316   -0.513948    0.013279
O      -2.440747    0.111613    0.026895
C      -1.411357   -2.062200    0.004758
O      -0.380723   -2.693799   -0.008881
N      -2.700173   -2.538580    0.014790
C      -3.157814   -3.853156    0.011947
N      -2.394875   -4.863810   -0.000704
H       0.740256    1.871350    0.005554
H       0.497447   -0.291521   -0.881996
H       0.514776   -0.301237    0.873182
H      -3.390814   -1.797429    0.025598
H      -4.254441   -3.877300    0.022056
H      -2.953312   -5.716090   -0.000176
