23

C      -0.031831    1.559248    0.054089
C      -0.004063    0.029157    0.022056
C      -1.403640   -0.592680    0.023342
C      -1.390633   -2.122927   -0.047174
C      -2.835762   -2.682237    0.029259
C      -2.939522   -4.111870    0.296242
C      -3.038605   -5.283647    0.548508
O      -0.758721   -2.477961   -1.265587
C      -0.074242   -3.715141   -1.275883
H       0.980450    1.975415    0.053063
H      -0.557893    1.963682   -0.817918
H      -0.543294    1.932203    0.948916
H       0.530736   -0.318384   -0.867343
H       0.558084   -0.345840    0.888114
H      -1.945933   -0.286733    0.927127
H      -1.977527   -0.212545   -0.832658
H      -0.812176   -2.522053    0.801347
H      -3.376721   -2.141239    0.815997
H      -3.332883   -2.439427   -0.917831
H      -3.124313   -6.320028    0.762519
H       0.656213   -3.777539   -0.454897
H      -0.755060   -4.570461   -1.200196
H       0.462916   -3.768579   -2.226765
