16

O       0.005631   -0.010870    0.157890
C      -0.013525    1.173386    0.000345
C      -1.084230    2.277614    0.015860
C      -0.026949    2.990100    0.948138
C       1.024998    2.307967   -0.012450
C       0.703454    3.017376   -1.341476
C      -0.061422    2.260199   -2.402770
C      -0.819004    2.995471   -1.321039
H      -2.111433    2.088407    0.319919
H      -0.042891    4.081636    0.930626
H      -0.007728    2.609750    1.972448
H       2.065008    2.148508    0.263865
H       1.268245    3.902598   -1.608605
H      -0.081152    2.710059   -3.390294
H      -0.045968    1.174544   -2.415302
H      -1.415988    3.863978   -1.572573
