20

C      -0.249187    1.364949    0.354917
O      -0.103330   -0.026470    0.203006
C      -1.313565   -0.677758   -0.113160
C      -1.044379   -2.163119   -0.231161
C      -0.677530   -2.905047    1.098477
C      -1.846930   -3.831009    0.836877
C      -2.306836   -3.071870   -0.392115
N      -2.212209   -4.880352    1.442976
O      -3.348994   -5.443475    0.827993
H       0.734792    1.773540    0.597414
H      -0.613999    1.841288   -0.569092
H      -0.948975    1.617208    1.167691
H      -2.068552   -0.490528    0.672480
H      -1.730164   -0.287268   -1.058680
H      -0.302178   -2.333539   -1.014367
H       0.306557   -3.378591    1.133497
H      -0.788224   -2.282327    1.992294
H      -3.262588   -2.553139   -0.254950
H      -2.373998   -3.664866   -1.307930
H      -3.506648   -6.222114    1.372341
