16

O       0.079572   -0.020660    0.102487
C       0.008194    1.174837   -0.004443
C      -1.274541    2.011560   -0.155799
C      -0.823524    3.251105   -0.928665
C      -1.402192    3.614818   -2.246961
N      -1.626025    4.466934   -1.063597
C       0.647971    3.400055   -0.652314
O       0.960150    3.286496    0.733778
C       1.172048    2.132461   -0.102666
H      -2.054692    1.429785   -0.649600
H      -1.627873    2.283700    0.845804
H      -0.780461    4.061821   -3.018579
H      -2.219226    3.004037   -2.622018
H      -2.559590    4.314586   -0.689052
H       1.259687    4.089203   -1.227356
H       2.191912    1.777520   -0.207163
