15

O      -0.024513    1.398907   -0.055303
C      -0.010552   -0.016864   -0.064609
C      -1.417090   -0.525246    0.027507
C      -2.478245    0.295627    0.106886
O      -3.768219   -0.104972    0.191702
N      -4.072744   -1.456787    0.201192
C      -3.086612   -2.277926    0.127003
C      -1.658975   -1.954969    0.032302
N      -0.697901   -2.808411   -0.040047
H       0.883694    1.708185   -0.104254
H       0.449094   -0.422199   -0.979727
H       0.567940   -0.432700    0.775254
H      -2.408096    1.374962    0.111031
H      -3.391250   -3.323221    0.139030
H      -1.059243   -3.764583   -0.023223
