20

C      -0.211699    1.292351   -0.127900
N       0.161754   -0.110091   -0.008470
C       1.590590   -0.429945   -0.080659
C       0.842550   -0.529521    1.193899
C       1.067890    0.217372    2.512511
O       0.741509   -0.979504    3.257214
C       0.460641   -1.706759    2.055229
C      -0.698632   -2.633794    1.917386
C       0.730729   -3.164637    1.906643
H       0.525100    1.985958    0.310288
H      -0.325962    1.542252   -1.186951
H      -1.174182    1.455814    0.366911
H       1.851391   -1.320157   -0.647725
H       2.296949    0.395450   -0.176970
H       2.089965    0.557019    2.714471
H       0.363940    1.032964    2.720591
H      -1.292017   -2.820880    2.805786
H      -1.251828   -2.604906    0.984617
H       1.150559   -3.523371    0.972083
H       1.071989   -3.692239    2.790985
