13

N       0.073346    1.409889    0.149047
C      -0.023037    0.029976    0.042660
C      -1.168563   -0.686615    0.024518
F      -2.337183   -0.040340    0.034183
C      -1.137043   -2.127887   -0.009246
N      -2.189445   -2.851304   -0.035525
N       0.174504   -2.715484   -0.022815
N       1.232738   -2.036424   -0.006362
N       1.158234   -0.683990    0.004719
H       0.701597    1.835729   -0.522340
H      -0.837365    1.849461    0.113303
H      -1.907661   -3.833245   -0.068458
H       2.044377   -0.229357    0.160456
