23

O      -0.012243    1.449975   -0.010651
C       0.036848    0.031988    0.055856
C      -1.382269   -0.496962   -0.112349
C      -1.457535   -2.016660   -0.060010
C      -1.217988   -2.736397    1.304211
C      -2.421416   -3.675195    1.003109
C      -2.834244   -2.709353   -0.115195
C      -4.167377   -2.023898   -0.216584
C      -3.708305   -2.973157   -1.301826
H       0.879791    1.787362    0.111663
H       0.683216   -0.381653   -0.736182
H       0.449567   -0.306336    1.020168
H      -2.013230   -0.062425    0.672383
H      -1.772983   -0.128532   -1.069941
H      -0.799061   -2.443420   -0.828749
H      -0.244656   -3.207969    1.457830
H      -1.419906   -2.070493    2.148966
H      -2.105009   -4.651457    0.621066
H      -3.139577   -3.835878    1.812026
H      -4.959541   -2.351660    0.449781
H      -4.192513   -0.963576   -0.446621
H      -3.417522   -2.547284   -2.257684
H      -4.192238   -3.942264   -1.376809
