19

C      -0.974901    0.974294   -0.064897
C       0.223514    0.048169    0.050650
O       0.499659   -0.492098   -1.226676
C       1.593259   -1.387640   -1.225440
C       1.745900   -1.973038   -2.603978
C       0.565059   -2.648816   -3.239710
N       2.910721   -1.859852   -3.117029
O       2.999696   -2.482997   -4.369803
H      -0.765920    1.785289   -0.768121
H      -1.850659    0.426392   -0.424268
H      -1.213848    1.411328    0.909221
H       1.102460    0.597078    0.428293
H       0.019916   -0.764271    0.769318
H       2.528395   -0.886727   -0.938358
H       1.409559   -2.200282   -0.497891
H      -0.359740   -2.219687   -2.850740
H       0.598881   -2.544624   -4.325160
H       0.570265   -3.722253   -3.012641
H       3.900153   -2.270069   -4.636308
