21

C       0.140649    1.406368   -0.332390
C       0.003709   -0.009996    0.232093
O       0.480800   -0.078105    1.573642
C      -1.416363   -0.564176    0.116971
C      -2.454966    0.088786    1.009622
C      -1.856894   -1.070164   -1.227726
C      -1.583839   -2.068270   -0.108594
C      -0.466252   -2.961512   -0.193418
C       0.458287   -3.728105   -0.269341
H       1.179774    1.737410   -0.254235
H      -0.160372    1.446316   -1.383493
H      -0.483536    2.119710    0.219222
H       0.668251   -0.676512   -0.327073
H       0.087651    0.650988    2.064407
H      -2.578541    1.152611    0.777233
H      -3.432824   -0.385678    0.885789
H      -2.175618   -0.003300    2.064487
H      -2.888127   -0.922744   -1.530868
H      -1.140944   -1.052644   -2.042536
H      -2.464131   -2.501957    0.358554
H       1.279218   -4.398903   -0.323296
