21

C      -0.072956    1.530391    0.194805
C      -0.135533    0.010625    0.010021
C       0.585235   -0.494935   -1.250899
C       0.833722   -1.993189   -1.324899
C      -0.347512   -2.889267   -1.612002
C       0.571140   -2.484761   -2.737922
C       0.127742   -1.306323   -3.581025
C      -0.143835   -0.179121   -2.572796
O      -0.836446    0.783971   -2.784663
H       0.965508    1.873185    0.273596
H      -0.536194    2.042714   -0.650250
H      -0.590700    1.831984    1.110792
H       0.314288   -0.484975    0.879137
H      -1.181459   -0.316937   -0.021011
H       1.559906    0.015816   -1.320627
H       1.653177   -2.402401   -0.744783
H      -0.291960   -3.914044   -1.262506
H      -1.349441   -2.469076   -1.582101
H       1.206422   -3.239880   -3.185508
H       0.929871   -0.972768   -4.253211
H      -0.758207   -1.479867   -4.198962
