21

C      -0.059417    1.583332    0.004197
C       0.044845    0.059670    0.017450
C       0.822771   -0.535259   -1.186904
N       1.697708   -1.578838   -0.618228
C       1.271700   -1.895612    0.748473
C       2.428446   -2.480725    1.568454
C       0.784153   -0.516310    1.238283
C       0.135432   -2.857275    0.759487
N      -0.737135   -3.615969    0.716801
H       0.934730    2.044719    0.015930
H      -0.581359    1.936823   -0.891077
H      -0.611564    1.950400    0.875496
H      -0.967532   -0.359639    0.011240
H       0.130037   -0.927014   -1.942326
H       1.440490    0.228617   -1.676200
H       1.772017   -2.401379   -1.203630
H       3.264783   -1.778113    1.549984
H       2.123738   -2.659606    2.603522
H       2.764057   -3.431990    1.145505
H       1.668645    0.085413    1.475065
H       0.160718   -0.582123    2.132501
