13

C       0.055532    1.523043   -0.013694
C      -0.089946    0.048331    0.064476
C      -1.096078   -0.851120   -0.039035
O      -2.437612   -1.018940   -0.248491
C      -2.567162   -2.392037   -0.174747
N      -1.509579   -3.094481    0.048184
C      -0.516296   -2.118998    0.144316
N       0.777200   -2.069359    0.354035
O       1.036737   -0.685919    0.300998
H       0.741567    1.806871   -0.818175
H      -0.915676    1.983161   -0.205615
H       0.454799    1.927400    0.921972
H      -3.573917   -2.758074   -0.315305
