14

N       0.033342    1.391970    0.175625
C      -0.047119    0.018185    0.059767
C      -1.227901   -0.683958    0.033462
C      -1.136833   -2.091759   -0.011210
F      -2.292227   -2.757074   -0.033150
C       0.035222   -2.786871   -0.042935
C       1.286749   -2.078647   -0.019282
O       2.415344   -2.539368   -0.031582
N       1.130446   -0.662083    0.030182
H       0.821148    1.830371   -0.280005
H      -0.831036    1.879538   -0.006232
H      -2.188035   -0.189423    0.040364
H       0.053608   -3.866463   -0.078363
H       2.008240   -0.166018    0.103634
