20

O       0.651003   -0.088315    0.866037
C      -0.145356    0.378300   -0.216928
C      -1.531511   -0.257716   -0.242792
N      -2.163086   -0.610310    1.051190
C      -1.696032   -1.681215    0.132323
C      -2.780974   -2.504245   -0.552473
C      -3.045619   -2.045154   -2.000745
C      -3.099911   -0.541091   -2.121246
C      -2.429158    0.272038   -1.305270
H       0.642606    0.577128    1.558152
H      -0.247309    1.472826   -0.186119
H       0.382567    0.131387   -1.146177
H      -1.449297   -0.507472    1.773134
H      -0.795110   -2.205448    0.438991
H      -2.515299   -3.566456   -0.540698
H      -3.702386   -2.394097    0.027793
H      -2.264337   -2.433230   -2.671161
H      -3.983396   -2.481904   -2.361738
H      -3.721071   -0.122937   -2.909582
H      -2.504001    1.352396   -1.412400
