21

C      -0.205945    1.496309   -0.286232
C       0.264068    0.060405   -0.173846
O       1.644299   -0.098772   -0.579595
C       1.952201   -0.855444    0.604948
C       0.554012   -0.579491    1.213723
C       0.568108    0.325050    2.471152
C       0.274968   -0.640845    3.594980
C      -0.184078   -1.805431    3.140191
C      -0.267806   -1.819554    1.633298
H       0.418187    2.168605    0.308962
H      -0.153202    1.819253   -1.330950
H      -1.245851    1.593203    0.044860
H      -0.385678   -0.586256   -0.784764
H       2.152188   -1.911954    0.376537
H       2.812418   -0.440063    1.144795
H       1.519124    0.857158    2.589562
H      -0.210272    1.100129    2.424398
H       0.388819   -0.373007    4.639572
H      -0.504268   -2.639717    3.754242
H      -1.313815   -1.733580    1.300673
H       0.118262   -2.741114    1.181481
