15

O      -0.640335    0.813084    0.566973
C       0.222935    0.970495   -0.259203
C       1.363312    1.950197   -0.157479
C       1.119038    3.388011   -0.737667
C       0.364841    3.728832    0.561146
C       1.481884    2.798531    1.157509
C       2.700995    3.629030    0.777156
O       3.692050    3.935862    1.361811
O       2.417193    4.006157   -0.523890
H       0.235870    0.367612   -1.194739
H       2.275674    1.478883   -0.538483
H       0.775580    3.595078   -1.748341
H       0.359264    4.778275    0.860390
H      -0.624167    3.282350    0.637896
H       1.450686    2.367804    2.152998
