19

C      -0.142743    1.525901    0.059577
C      -0.009546    0.001377   -0.017050
C      -1.312659   -0.572428    0.333241
N      -2.355172   -1.002054    0.588974
C       0.732892   -0.616329   -1.253932
C       2.005035   -0.250581   -0.455171
N       1.181876   -0.549298    0.788934
C       0.994353   -2.022075    0.586455
C       0.646243   -2.121563   -0.943696
H       0.763218    2.039783   -0.260738
H      -0.966745    1.858163   -0.577866
H      -0.361989    1.824446    1.087716
H       0.533630   -0.282529   -2.273255
H       2.880070   -0.893746   -0.573225
H       2.312556    0.792191   -0.489766
H       1.921792   -2.532316    0.853116
H       0.197260   -2.390154    1.233498
H      -0.344877   -2.541123   -1.127977
H       1.378035   -2.697241   -1.515797
