20

C      -0.235622    1.772625    0.447494
C      -0.089523    0.281627    0.238844
C       1.285127   -0.337846    0.063318
C       0.478330   -0.597560    1.312666
O       0.857973    0.015586    2.508077
C       1.926887   -0.635625    3.170165
C       2.240751    0.036110    4.506786
N       1.400149    1.044758    4.843807
O       3.175640   -0.343282    5.184403
H       0.562917    2.159189    1.085129
H      -0.197463    2.304753   -0.508698
H      -1.191272    2.013151    0.926171
H      -0.886750   -0.172647   -0.343705
H       1.423671   -1.142040   -0.650842
H       2.134629    0.329949    0.165963
H       0.052616   -1.592302    1.450125
H       1.683037   -1.688442    3.376489
H       2.841029   -0.625316    2.561804
H       0.643177    1.296058    4.231559
H       1.541417    1.526152    5.715554
