21

C       0.022841   -1.223517   -0.188687
C      -0.018920   -0.032498   -0.030295
C      -0.030937    1.413726    0.158508
C       1.372739    2.028042    0.100260
C       2.111398    2.044871   -1.269614
C       2.541780    3.516432   -1.001079
C       1.514490    3.562456    0.138437
C       0.396331    4.560609    0.256213
C       1.471750    4.484306    1.317501
H       0.046612   -2.275674   -0.327828
H      -0.662132    1.879925   -0.609093
H      -0.499136    1.649549    1.124199
H       1.996794    1.562451    0.871094
H       2.904745    1.309085   -1.411711
H       1.410955    1.966516   -2.106074
H       3.573043    3.594282   -0.641900
H       2.405114    4.228316   -1.819778
H       0.401321    5.409938   -0.420113
H      -0.597734    4.209432    0.514997
H       1.201094    4.070248    2.284392
H       2.203439    5.284850    1.366970
