17

C      -0.036314    1.573112   -0.022241
C      -0.076510    0.049210   -0.053704
C      -1.490201   -0.494688    0.168247
O      -1.993490   -0.163335    1.451987
C       0.703074   -0.630371   -1.223528
C       1.686325   -1.128174   -0.139228
O       2.732088   -1.716531   -0.122420
N       0.899823   -0.596455    0.864388
H       0.988969    1.941963   -0.117972
H      -0.630855    1.990005   -0.841679
H      -0.459920    1.940643    0.916834
H      -2.178399   -0.047529   -0.557469
H      -1.489670   -1.582767    0.009745
H      -1.507842   -0.695068    2.091641
H       0.170529   -1.420182   -1.758162
H       1.155102    0.057036   -1.940648
H       1.178965   -0.330143    1.799180
