21

C       0.458279    1.467785    0.196831
C      -0.103279    0.073944   -0.114026
C       0.439618   -0.506099   -1.396360
C       0.104673    0.108064   -2.752344
C       0.666597   -0.899079   -3.778207
C       0.666664   -2.280950   -3.070262
O       1.690822   -3.154342   -3.508896
C       0.750057   -1.926232   -1.596928
O       1.805616   -0.978410   -1.337274
H       1.550031    1.435376    0.259859
H       0.185943    2.194190   -0.575509
H       0.072871    1.837982    1.151170
H       0.138785   -0.610329    0.706113
H      -1.197948    0.117274   -0.181969
H      -0.985631    0.197732   -2.834921
H       0.522440    1.111930   -2.876293
H       0.104330   -0.916324   -4.714089
H       1.701303   -0.644810   -4.023297
H      -0.271288   -2.817722   -3.257168
H       2.526883   -2.748771   -3.249347
H       0.604222   -2.685000   -0.831603
