16

O       0.101519    1.389470    0.243899
C      -0.032314    0.014619    0.036559
C      -1.415808   -0.641642    0.040669
C      -2.227190   -0.241515   -1.160169
C      -1.148772   -1.266514   -1.332013
C       0.228749   -0.577060   -1.421286
C       0.421979    0.406029   -2.469159
C       0.551166    1.287063   -3.280025
H      -0.178317    1.843700   -0.560154
H       0.632273   -0.473441    0.753908
H      -1.877687   -1.090886    0.911512
H      -3.241512   -0.626323   -1.171664
H      -2.126028    0.741674   -1.612200
H      -1.343805   -2.275259   -1.671845
H       1.057818   -1.288934   -1.407301
H       0.684168    2.033046   -4.024286
