18

C      -0.515290    1.340732   -0.050892
C       0.018136   -0.090508    0.015424
C       0.987809   -0.425158   -1.111816
N       0.842344   -0.087781   -2.317779
O       2.048973   -1.156416   -0.634187
C       2.007309   -1.199138    0.779215
C       2.155450    0.125616    1.490693
C       0.786469   -0.494187    1.267387
O       0.079381   -1.013343    2.348186
H       0.288002    2.069256    0.095641
H      -0.962020    1.525332   -1.030200
H      -1.275784    1.507887    0.718687
H      -0.825011   -0.789719   -0.063564
H       1.618721   -0.429265   -2.886703
H       2.385944   -2.123701    1.194370
H       2.532744    0.083587    2.506630
H       2.463758    0.990239    0.911446
H      -0.261525   -0.275791    2.866062
