15

O      -0.157888    1.455102   -0.508486
C      -0.299510    0.084933   -0.732782
C      -1.126096   -0.558873    0.370219
O      -1.458357    0.085076    1.338418
C      -1.489157   -2.021340    0.224243
C      -2.255216   -2.419909   -0.990205
O      -0.868815   -2.684236   -0.894935
C      -1.630505   -2.778855    1.438612
C      -1.736144   -3.402972    2.458763
H      -0.528243    1.614874    0.373908
H      -0.758496   -0.105154   -1.713266
H       0.672173   -0.437661   -0.753000
H      -2.911932   -3.283287   -0.908590
H      -2.549466   -1.658824   -1.711053
H      -1.829016   -3.952926    3.363057
