19

C      -0.307392    1.363615   -0.008202
N       0.049284   -0.044824    0.067027
C       1.428783   -0.408755   -0.232334
C       0.895575   -0.541854    1.154078
C       1.421070    0.320029    2.285511
C       0.393689    0.501220    3.420809
C       1.000916    1.192787    4.619326
O       0.583978    2.203385    5.122674
H       0.489578    2.061139    0.293969
H      -0.575773    1.596895   -1.043469
H      -1.186220    1.552866    0.616638
H       1.572825   -1.280378   -0.865970
H       2.140358    0.399207   -0.406479
H       0.596860   -1.537864    1.484136
H       2.322449   -0.161389    2.688416
H       1.739735    1.299835    1.916524
H      -0.480755    1.068469    3.091640
H       0.051331   -0.491009    3.750191
H       1.910214    0.685967    5.023687
