19

C       0.083573   -1.240372    0.025395
C      -0.020083   -0.038154    0.022170
C      -0.082460    1.381726    0.011553
C      -1.288041    1.993014    0.094414
C      -1.612934    3.409082    0.059068
C      -0.825420    4.497302    0.112394
C       0.661378    4.594416    0.286015
C       1.386711    3.344769    0.791318
C       1.247099    2.104412   -0.106772
H       0.156301   -2.299427    0.028204
H      -2.151326    1.336410    0.160715
H      -2.679858    3.600356   -0.037205
H      -1.327439    5.459838    0.029273
H       1.105599    4.919983   -0.667589
H       0.866406    5.421290    0.980650
H       2.451239    3.587381    0.884836
H       1.034260    3.097845    1.799078
H       2.041291    1.392942    0.135924
H       1.409116    2.388681   -1.155957
