18

C       0.019286    1.485277   -0.148708
N      -0.015241    0.029520    0.031824
C      -1.129382   -0.578616    0.873196
C      -0.202550   -1.815050    1.015711
C       0.746199   -0.600092    1.205313
C       2.233273   -0.510634    1.382854
O       2.641957    0.822036    1.648564
C      -0.369380    0.040989    2.070209
O      -0.489928    0.829945    2.960492
H       1.007915    1.761246   -0.520792
H      -0.724983    1.748491   -0.906290
H      -0.182613    2.069999    0.760755
H      -2.172254   -0.530949    0.566344
H      -0.360730   -2.470102    1.873565
H      -0.047095   -2.348267    0.076721
H       2.537965   -1.203116    2.183814
H       2.749896   -0.818386    0.467904
H       2.159102    1.125234    2.426589
