19

C       0.064971    1.560757   -0.074010
C       0.002515    0.051410   -0.081634
C       1.140468   -0.725617   -0.590663
O       0.902638   -0.612472    0.826298
C      -1.382858   -0.609832   -0.101826
O      -1.258072   -2.011600    0.051320
C      -2.322444   -0.031834    0.980211
C      -3.677963   -0.708900    0.977344
O      -4.725795   -0.114197    0.946091
H       1.100805    1.900266   -0.144325
H      -0.491957    1.973153   -0.922463
H      -0.363787    1.972402    0.843713
H       0.974704   -1.715973   -1.005067
H       2.024662   -0.200716   -0.947018
H      -1.830674   -0.444010   -1.089919
H      -0.586657   -2.133656    0.739357
H      -1.856859   -0.203851    1.961886
H      -2.482023    1.042103    0.857402
H      -3.640882   -1.817389    1.004958
