14

C       0.061917    1.436002   -0.000626
C      -0.064163   -0.042327   -0.013486
N      -1.133765   -0.749201   -0.278034
C      -0.668465   -2.034982   -0.142519
C       0.649498   -2.056053    0.194886
O       1.075926   -0.763777    0.287467
N       1.171330   -3.293693    0.344364
C       0.121401   -4.063964    0.085674
N      -1.029329   -3.358665   -0.217760
H       0.809710    1.774143   -0.725769
H      -0.903893    1.874554   -0.252462
H       0.373807    1.796384    0.985342
H       0.129709   -5.142679    0.101801
H      -1.926960   -3.752484   -0.442423
