23

C       0.174983    1.524014   -0.002649
C      -0.030488    0.009123    0.056657
O       0.683000   -0.542918    1.164424
C      -1.515319   -0.464801    0.037632
C      -2.269558    0.002958    1.293625
C      -2.221215    0.053727   -1.226522
C      -1.474999   -2.024341    0.003422
C      -2.781743   -2.668837    0.011346
C      -3.863981   -3.194190    0.015096
H       1.246253    1.741258    0.025665
H      -0.237658    1.959006   -0.916220
H      -0.294260    2.027854    0.850304
H       0.456448   -0.435216   -0.821678
H       0.453664   -0.031616    1.947522
H      -2.348939    1.093505    1.335249
H      -3.283681   -0.404797    1.301194
H      -1.774908   -0.342665    2.207879
H      -1.641231   -0.175592   -2.128426
H      -3.201976   -0.418511   -1.332938
H      -2.374511    1.135890   -1.190074
H      -0.927921   -2.341055   -0.894945
H      -0.883090   -2.371046    0.856635
H      -4.812605   -3.670862    0.019972
