18

N       0.180348    1.458197    0.071530
C       0.030774    0.016367   -0.012407
C      -1.429133   -0.518575   -0.094426
N      -2.071953    0.059002   -1.280644
C      -1.447704   -2.070942   -0.078349
N      -2.817643   -2.559239   -0.224215
C      -2.165575   -0.047924    1.098119
N      -2.719485    0.280594    2.058167
H      -0.408600    1.892233   -0.634532
H      -0.166161    1.788105    0.968093
H       0.544301   -0.343104   -0.915054
H       0.532578   -0.446045    0.843673
H      -1.513956   -0.197290   -2.092862
H      -2.969919   -0.405374   -1.402894
H      -0.866564   -2.409551   -0.944134
H      -0.929403   -2.430508    0.825236
H      -2.820771   -3.545866   -0.457539
H      -3.317677   -2.463549    0.654904
