17

C       0.075888    1.144253    0.583466
N       0.008640   -0.004336   -0.332963
C      -1.199500   -0.729025   -0.285211
C      -1.302773   -2.045054    0.109849
O      -0.377499   -2.930809    0.510224
N      -2.609057   -2.349080    0.018460
C      -3.282433   -3.595368    0.305716
N      -3.306113   -1.253539   -0.422369
N      -2.451081   -0.291003   -0.599253
H       1.047155    1.634728    0.469923
H      -0.718739    1.882792    0.413461
H      -0.007347    0.786044    1.613791
H       0.197076    0.308395   -1.280017
H       0.469478   -2.462876    0.456581
H      -3.161990   -3.868678    1.357767
H      -4.338968   -3.443583    0.084386
H      -2.886814   -4.401486   -0.318364
