18

C      -0.177427    1.665205    0.041888
C       0.016448    0.160922    0.001860
C       0.895463   -0.575347   -1.062773
C       0.627022   -0.836019   -2.508612
C       2.188973   -0.066265   -0.366648
C       1.199233   -0.570744    0.711613
O       0.927777   -1.749311   -0.130730
C       1.420435   -0.756900    2.125141
N       1.593412   -0.859229    3.263359
H       0.740745    2.228130   -0.142085
H      -0.911437    1.968087   -0.712342
H      -0.567373    1.971251    1.018003
H      -0.918106   -0.378825    0.175485
H       0.624813    0.104873   -3.067896
H       1.396842   -1.487897   -2.931715
H      -0.347008   -1.317523   -2.635977
H       3.061417   -0.705399   -0.502586
H       2.430915    0.996404   -0.399023
