18

C       0.547122    1.531042   -0.380407
C       0.079261    0.141608    0.059470
N       0.208788   -0.858831   -0.991186
C       1.320542   -1.659000   -0.914846
O       1.683143   -2.456680   -1.749435
C       2.003322   -1.330483    0.415524
C       0.940106   -0.519639    1.192165
C       1.469561    0.400742    2.184336
C       1.918366    1.150177    3.010321
H       1.598698    1.518720   -0.683229
H      -0.046546    1.876336   -1.232977
H       0.432479    2.251814    0.433013
H      -0.963593    0.204416    0.389272
H      -0.303190   -0.801842   -1.858398
H       2.321273   -2.237842    0.930111
H       2.898137   -0.733853    0.211553
H       0.284133   -1.236980    1.699841
H       2.314880    1.809835    3.742148
