17

O       0.006380    1.385776   -0.246345
C       0.038277   -0.015473   -0.125903
C      -1.369720   -0.552392    0.205153
N      -2.327222   -0.070043   -0.804891
C      -2.505157   -1.166761   -1.786650
C      -2.337119   -2.479674   -1.004535
C      -1.408659   -2.087113    0.149366
O      -0.798380   -2.830275    0.872771
H      -0.779357    1.566805   -0.783210
H       0.409228   -0.492685   -1.049470
H       0.729046   -0.279027    0.679569
H      -1.643154   -0.194115    1.201918
H      -3.217202    0.129545   -0.363142
H      -3.472767   -1.070006   -2.282592
H      -1.733733   -1.082494   -2.560365
H      -3.290432   -2.806096   -0.569008
H      -1.929623   -3.319227   -1.571878
