20

C      -0.042553    1.433468    0.213851
C      -0.191334   -0.086379    0.106116
C      -1.626954   -0.558231   -0.239199
C      -2.074788   -0.136947   -1.646551
C      -1.662374   -2.072088   -0.108512
O      -1.174269   -2.815014   -0.936112
C      -2.317287   -2.674896    1.124927
O      -2.197066   -4.063695    1.144388
H       0.977781    1.698486    0.507203
H      -0.250914    1.934337   -0.735932
H      -0.722862    1.846660    0.966813
H       0.491380   -0.483884   -0.653650
H       0.112153   -0.540677    1.057984
H      -2.313089   -0.135533    0.507365
H      -1.423220   -0.588363   -2.399338
H      -3.098614   -0.466282   -1.849090
H      -2.046501    0.949236   -1.761160
H      -1.863115   -2.217822    2.020329
H      -3.375040   -2.355762    1.126760
H      -1.748944   -4.283108    0.310732
