15

C       1.104880    1.181841   -0.276501
N       0.920771   -0.094566   -0.942965
C      -0.261980   -0.751376   -0.938384
O      -1.275130   -0.362389   -0.393563
C      -0.295459   -2.104302   -1.696486
C       0.928338   -2.540526   -2.336555
C       1.959505   -2.888425   -2.864613
C       3.122442   -3.282725   -3.461205
N       4.114807   -3.613110   -3.966853
H       1.395611    1.959674   -0.990200
H       0.154059    1.453795    0.182275
H       1.872739    1.112215    0.500961
H       1.699870   -0.509972   -1.428222
H      -0.629217   -2.854051   -0.970017
H      -1.099287   -2.020475   -2.436815
