17

C       0.569268    1.100904   -0.298644
O       0.588168   -0.279214    0.039369
C       0.377691   -0.539403    1.389593
C       0.242806   -2.049306    1.558204
C       1.586396   -2.713663    1.540093
C       2.694664   -2.029697    1.825260
C       2.652517   -0.610733    2.229927
O       3.606139   -0.002666    2.639056
O       1.432617    0.012058    2.192428
H       1.379299    1.647854    0.194715
H       0.695140    1.159274   -1.381127
H      -0.390600    1.561170   -0.022030
H      -0.514603   -0.009674    1.750835
H      -0.271159   -2.272512    2.502394
H      -0.395280   -2.425748    0.753385
H       1.632199   -3.773837    1.306963
H       3.681538   -2.475897    1.832443
