16

N       0.078130   -1.090980    0.025797
C       0.040770    0.063059    0.012334
C      -0.059794    1.513896    0.009453
C      -0.845163    2.132881    1.189645
O      -1.081114    3.475709    0.732778
C      -0.472966    3.570335   -0.562858
C       1.045746    3.488697   -0.373724
O       1.247154    2.105064    0.006188
C      -0.762630    2.196897   -1.183907
H      -1.796508    1.624665    1.384753
H      -0.232891    2.133956    2.096323
H      -0.847731    4.458861   -1.068258
H       1.610756    3.702950   -1.288670
H       1.386367    4.145844    0.431713
H      -0.253115    2.001025   -2.127866
H      -1.827401    1.974410   -1.255971
