17

C       0.047422    1.187787   -0.468600
O      -0.114773    0.097720    0.426711
C      -1.322054   -0.562057    0.270159
C      -1.433079   -1.690285   -0.741031
C      -0.289276   -2.041450   -1.618790
O      -0.430396   -2.498102   -2.727585
C      -1.391249   -1.959781    0.794136
C      -0.209320   -2.597962    1.440543
O      -0.319220   -3.448827    2.288200
H       1.003102    1.655429   -0.226343
H       0.060632    0.851939   -1.514459
H      -0.757831    1.925198   -0.345320
H      -2.206232    0.065658    0.392322
H      -2.398812   -1.857815   -1.205968
H       0.719509   -1.839586   -1.205366
H      -2.333085   -2.289661    1.218422
H       0.782684   -2.232316    1.113686
