16

O       0.226701    0.121712    0.658080
C       0.158152    1.269928    0.284400
N       1.136933    1.924668   -0.432896
C       2.616154    1.707236   -0.227692
C       2.826401    2.973734   -1.113715
C       1.654543    3.318080   -0.146442
C       2.507465    2.676981    0.975181
C       2.441015    2.559654    2.419512
O       3.528274    3.246951    1.732340
H      -0.753637    1.892463    0.395239
H       3.069235    0.722375   -0.299575
H       3.755267    3.522672   -0.961652
H       2.547990    2.861931   -2.161420
H       1.002927    4.190172   -0.131640
H       1.784501    3.209854    2.994321
H       2.720912    1.626642    2.903014
