17

N      -0.268157    1.122781    0.431041
C      -0.325962   -0.255635    0.294172
O       0.271543   -1.013243    1.043320
N      -1.117033   -0.685121   -0.747773
C      -1.383362   -2.110891   -0.913278
C      -2.498699   -2.648367   -0.040227
C      -2.354395   -3.988033    0.584888
N      -2.295551   -2.773971    1.409070
H       0.463222    1.420387    1.058501
H      -0.352357    1.683165   -0.403526
H      -1.815758   -0.044240   -1.090721
H      -1.611564   -2.290372   -1.970264
H      -0.450467   -2.629640   -0.679157
H      -3.498462   -2.310009   -0.313339
H      -3.229167   -4.613303    0.741637
H      -1.435912   -4.538753    0.393450
H      -1.329191   -2.533509    1.626163
