22

C      -0.003131    1.531473   -0.262998
C      -0.006644    0.043424    0.113009
C      -1.391936   -0.536055    0.165234
C      -1.913053   -1.947642   -0.001757
C      -2.912366   -1.754194    1.152568
C      -2.401426   -0.286104    1.312934
O      -1.694680   -0.038436    2.512164
N      -2.061033   -0.956217   -1.048790
C      -3.350198   -0.451933   -1.497726
H       1.017187    1.925781   -0.295341
H      -0.455894    1.687788   -1.247545
H      -0.565019    2.121593    0.468393
H       0.576024   -0.528531   -0.617116
H       0.465652   -0.091248    1.091728
H      -1.378057   -2.863836   -0.232492
H      -3.972845   -1.916016    0.933667
H      -2.631812   -2.335332    2.034203
H      -3.142609    0.504829    1.129809
H      -2.333341    0.023433    3.229355
H      -4.115763   -0.338250   -0.717278
H      -3.202025    0.524148   -1.970022
H      -3.745369   -1.135244   -2.256234
