20

C      -0.090919    1.526146   -0.031413
C       0.000931    0.036066    0.026005
C      -0.031572   -1.049815   -1.048434
C       1.088200   -1.895410   -0.400441
C       0.353121   -2.967956    0.424482
N      -0.311372   -1.839533    1.179144
C       0.893157   -0.943537    0.828519
C      -1.031899   -1.055102    0.120698
C      -2.521136   -1.043560    0.002739
H       0.840457    1.973922   -0.397060
H      -0.894043    1.840536   -0.706908
H      -0.302346    1.952162    0.956204
H      -0.330100   -0.977145   -2.086436
H       2.025026   -2.052064   -0.935297
H      -0.328930   -3.659366   -0.081046
H       1.009692   -3.519572    1.104563
H       1.624714   -0.723793    1.605034
H      -2.988169   -0.705527    0.933511
H      -2.842122   -0.376821   -0.804531
H      -2.905642   -2.045524   -0.222059
