20

C      -0.398280    1.414902    0.028131
C       0.059791   -0.048266   -0.019475
C       0.912768   -0.379310   -1.252992
C       1.419274   -1.844924   -1.128146
C       2.511472   -1.253250   -0.209812
C       2.383138    0.068862   -0.998715
O       2.004038   -1.084763    1.123950
C       0.807079   -0.435665    1.261137
N       0.325403   -0.178906    2.402994
H       0.455229    2.100513    0.006674
H      -1.036750    1.641145   -0.831974
H      -0.957430    1.601840    0.946177
H      -0.838747   -0.679059   -0.045848
H       0.419113   -0.068459   -2.176205
H       0.751927   -2.593701   -0.692857
H       1.842664   -2.220872   -2.062703
H       3.475793   -1.748160   -0.095307
H       2.983273    0.051151   -1.911359
H       2.568190    0.996750   -0.451729
H       0.953707   -0.516542    3.134799
