14

O       0.450910    0.600811    0.877086
C      -0.117552   -0.256014   -0.068234
C      -1.617158    0.059949   -0.276241
O      -2.063979   -0.313995   -1.582870
C      -1.278547   -1.283187   -2.176915
O       0.055410   -0.794091   -2.431861
C       0.631497   -0.165553   -1.394583
O       1.677697    0.420228   -1.498900
H       1.261867    0.938382    0.463521
H      -0.020583   -1.304973    0.262583
H      -2.224998   -0.442890    0.485609
H      -1.756945    1.139259   -0.182906
H      -1.205281   -2.201378   -1.574184
H      -1.698123   -1.506870   -3.157410
