18

O       0.055482   -0.036990    0.075496
C      -0.019566    1.170034   -0.017335
C      -1.379022    1.861203   -0.171607
N      -1.378839    3.203410   -0.766531
C      -0.227256    4.005101   -0.385867
C       0.090827    4.017794    1.149116
C       1.396956    3.284231    0.854725
C       1.183631    3.407802   -0.637064
C       1.196690    2.032379   -0.007184
H      -2.022053    1.196605   -0.753809
H      -1.826882    1.907468    0.831504
H      -1.409875    3.124073   -1.777937
H      -0.344808    5.007934   -0.801458
H       0.272891    5.036073    1.500015
H      -0.628917    3.546643    1.823162
H       2.317484    3.375542    1.418204
H       1.877930    3.683016   -1.422066
H       2.111144    1.460593   -0.131534
