19

C      -0.071559    1.512621    0.193786
C       0.087484    0.022368   -0.052501
O       1.181996   -0.477591   -0.215553
C      -1.179271   -0.790873   -0.064305
O      -2.360522   -0.035341    0.078743
C      -1.401317   -2.075396   -0.849667
C      -0.158876   -2.969114   -0.948294
C      -0.084078   -2.996278    0.614601
C      -1.335597   -2.114496    0.670778
H       0.917814    1.965459    0.266261
H      -0.628205    1.981149   -0.625856
H      -0.650928    1.696452    1.102895
H      -2.620211    0.289012   -0.790174
H      -2.275249   -2.117029   -1.491469
H      -0.408971   -3.948510   -1.363458
H       0.702873   -2.558717   -1.472872
H      -0.277909   -3.991272    1.021656
H       0.822415   -2.591448    1.065375
H      -2.145047   -2.172518    1.388470
