21

C       0.124602    1.636280    0.117141
C       0.135758    0.118344    0.025100
C       0.759094   -0.651199   -1.208314
C       1.824684    0.110899   -1.984323
C       1.353262   -1.732992   -0.210511
C       0.464861   -2.966721   -0.073319
O       2.688027   -2.135700   -0.385480
C       1.159637   -0.649982    0.858293
O       1.868890   -0.347583    1.781878
H       1.120071    2.056818   -0.047294
H      -0.557911    2.072082   -0.619027
H      -0.204556    1.952695    1.111389
H      -0.867243   -0.280719    0.214942
H       0.007777   -1.062543   -1.887091
H       2.595969    0.520699   -1.324151
H       2.327638   -0.554737   -2.690576
H       1.385779    0.941784   -2.545155
H       0.574489   -3.587242   -0.968274
H       0.770669   -3.558755    0.793727
H      -0.590998   -2.702324    0.035067
H       3.209469   -1.683855    0.290537
