18

O       0.149455    1.368744   -0.213549
C       0.099532   -0.018066    0.044106
C      -1.332894   -0.561814    0.066865
C      -2.044173   -0.491178   -1.331264
C      -1.720927   -1.991744   -1.552838
C      -1.412486   -2.119084   -0.037652
C      -2.138815    0.059733    1.173370
O      -1.793011    1.007429    1.841824
H      -0.286883    1.787272    0.539911
H       0.665483   -0.507306   -0.756437
H       0.591648   -0.274090    0.996045
H      -3.119339   -0.306819   -1.242115
H      -1.619244    0.245479   -2.015108
H      -2.523344   -2.618010   -1.947786
H      -0.834500   -2.140518   -2.173998
H      -0.509463   -2.659968    0.258023
H      -2.257010   -2.525942    0.527536
H      -3.136131   -0.409616    1.341027
