17

C       0.078436    1.618818    0.000132
C       0.084851    0.090226   -0.025353
C       0.805282   -0.567497   -1.191841
O       2.043647    0.081186   -1.565497
C       2.820730   -1.084740   -1.200769
C       1.587279   -1.752289   -0.579441
O       1.524761   -1.603210    0.836075
C       0.775047   -0.516316    1.202529
O       0.691996   -0.161266    2.339738
H       1.085785    2.004471   -0.170081
H      -0.579756    2.020070   -0.775147
H      -0.271858    1.965651    0.974993
H      -0.948349   -0.283176    0.001724
H       0.175465   -0.766009   -2.064016
H       3.219125   -1.599542   -2.083603
H       3.631059   -0.851288   -0.503519
H       1.352108   -2.783425   -0.841698
