19

C      -0.167921    1.480120    0.063721
C       0.021523   -0.022903   -0.036067
C       0.753675   -0.621029   -1.289729
C       2.037425   -0.279438   -0.477625
N       1.206073   -0.575931    0.759132
C       0.979697   -2.040667    0.560040
C       0.645735   -2.076700   -0.934556
N       0.347822   -3.024126   -1.720791
O       0.341318   -4.257352   -1.026411
H       0.708880    2.052068   -0.248103
H      -1.010053    1.789879   -0.563542
H      -0.396253    1.753595    1.098430
H      -0.918193   -0.518193    0.231854
H       0.565709   -0.323869   -2.320432
H       2.917074   -0.915977   -0.603376
H       2.332761    0.768188   -0.509280
H       1.877434   -2.613711    0.806921
H       0.158888   -2.400943    1.185795
H       0.108388   -4.879115   -1.723725
