22

C       0.086105    1.541268   -0.000497
C      -0.014794    0.011629    0.001594
C      -1.448390   -0.535305   -0.015923
O      -2.152984   -0.188230    1.183761
C      -2.269676   -0.134785   -1.273803
C      -3.307617   -1.264491   -1.473505
C      -2.613943   -2.491952   -0.913871
N      -1.209726   -2.621256   -1.374703
C      -1.502167   -2.056307   -0.041032
H       1.131884    1.861728    0.022501
H      -0.373321    1.978411   -0.893051
H      -0.399166    1.981082    0.879081
H       0.511351   -0.398169   -0.867659
H       0.485107   -0.382508    0.894878
H      -2.217633    0.771310    1.218259
H      -2.737845    0.845704   -1.147782
H      -1.607615   -0.079205   -2.140941
H      -4.211619   -1.071259   -0.885974
H      -3.603223   -1.376631   -2.521280
H      -3.178689   -3.395318   -0.707478
H      -0.911664   -3.586891   -1.263030
H      -1.210080   -2.594633    0.854629
