15

C       0.031708    1.555993    0.069792
C       0.074080    0.046547    0.054067
O      -1.110370   -0.556564   -0.393241
C       1.306718   -0.779733   -0.224011
N       2.520734   -0.212726    0.360425
C       1.957624   -0.156548    1.651668
O       2.376743    0.285587    2.683149
C       0.675465   -0.815613    1.167362
H       0.958346    1.991989    0.447812
H      -0.133118    1.941920   -0.944247
H      -0.791729    1.898754    0.702765
H      -1.309622   -0.205205   -1.268563
H       1.345589   -1.577415   -0.954311
H       3.060813    0.543590   -0.044834
H       0.090184   -1.589073    1.642361
