21

C      -0.182029    1.612600    0.038718
C       0.002004    0.081726    0.011709
C      -1.381127   -0.596537   -0.080100
C       0.871613   -0.393935   -1.145190
C       1.839874   -1.231174   -0.757612
C       1.891753   -1.373433    0.725674
C       2.211035   -0.082885    1.455997
O       2.855581    0.995459    0.849806
C       0.766874   -0.454455    1.235407
H       0.773458    2.127479    0.152596
H      -0.665885    1.961939   -0.880482
H      -0.821602    1.903526    0.878841
H      -1.901815   -0.301545   -0.997705
H      -1.285832   -1.686345   -0.078448
H      -2.008553   -0.304029    0.769779
H       0.673845   -0.089469   -2.168270
H       2.545280   -1.723323   -1.418519
H       2.148407   -2.326117    1.176337
H       2.569431   -0.194367    2.474842
H       2.781825    0.874298   -0.106157
H       0.182103   -0.726389    2.108615
