21

C       0.352990    1.528736    0.404416
C       0.046438    0.068501    0.079043
C       0.661646   -0.384045   -1.247519
O       2.075469   -0.339436   -1.214441
O       0.594840   -0.834020    1.059136
C      -0.186368   -1.024256    2.206078
C       0.458098   -1.827934    3.305425
C       0.270910   -0.333667    3.467732
O       1.370756    0.519242    3.398350
H       1.424412    1.716721    0.291136
H      -0.181132    2.187507   -0.288249
H       0.052348    1.784570    1.422710
H      -1.041646   -0.087329    0.030498
H       0.299241   -1.396493   -1.480641
H       0.341419    0.285590   -2.052299
H       2.340679   -0.903693   -0.479048
H      -1.248610   -1.155723    2.004980
H      -0.158319   -2.514944    3.874969
H       1.472323   -2.166591    3.120199
H      -0.467981    0.028148    4.175698
H       1.753224    0.400905    2.519015
