16

O      -0.174545    0.050915    0.231719
C       0.020533    1.175415   -0.142133
C       1.407420    1.780118   -0.274432
O       1.272286    3.021216   -0.950018
C       2.463832    3.719148   -1.126590
C       3.367106    3.335417   -2.287448
C       2.531207    4.585116   -2.357042
C       3.077507    4.191452    0.098647
N       3.556854    4.544581    1.090235
H      -0.801800    1.872514   -0.413780
H       1.829198    1.917454    0.733194
H       2.062001    1.085924   -0.819617
H       4.438477    3.426756   -2.155330
H       3.039739    2.478618   -2.865038
H       1.640600    4.565397   -2.973808
H       3.019559    5.547936   -2.271450
