18

C      -0.539159    0.785900   -0.006845
O       0.703442    0.116549   -0.202850
C       0.693389   -0.864614   -1.120697
N       1.745424   -1.524282   -1.342823
C       1.736284   -2.600027   -2.333237
C       2.371775   -3.837901   -1.652905
O       1.666803   -4.229031   -0.499474
C       0.437188   -2.921013   -2.935361
C      -0.626375   -3.176744   -3.435388
H      -0.897671    1.244568   -0.935753
H      -1.304370    0.102619    0.379644
H      -0.351936    1.567933    0.729536
H      -0.265626   -1.018982   -1.630239
H       2.421984   -2.300784   -3.139608
H       2.356576   -4.686038   -2.342739
H       3.417983   -3.584401   -1.426716
H       1.676271   -3.466960    0.092128
H      -1.558492   -3.423402   -3.880980
