23

C       0.032559    1.531632    0.068435
C       0.030782    0.015179   -0.058431
C       0.843918   -0.495067   -1.253041
C       1.058496   -1.979573   -1.135658
C       0.890210   -2.620626    0.017429
C       0.534383   -1.921293    1.309261
C      -0.854695   -2.367176    1.808573
C       1.597657   -2.221892    2.375090
O       0.566156   -0.497033    1.156877
H       1.052494    1.897354    0.223409
H      -0.369725    1.994628   -0.838006
H      -0.575934    1.845489    0.920757
H      -1.007816   -0.333182   -0.181570
H       0.318201   -0.258107   -2.186886
H       1.808202    0.031371   -1.300628
H       1.349458   -2.525981   -2.029236
H       1.020846   -3.698160    0.081506
H      -0.882759   -3.450276    1.965384
H      -1.085438   -1.873022    2.757053
H      -1.635586   -2.117355    1.085096
H       2.582547   -1.902491    2.025579
H       1.362957   -1.679203    3.295545
H       1.633425   -3.291988    2.600441
