21

C      -0.020057    1.630769   -0.028835
C      -0.168797    0.105409   -0.048827
C       0.655242   -0.542679   -1.151461
N       2.164227   -0.375258   -1.088788
C       2.656132   -1.178629    0.049620
C       2.301125   -1.887307   -1.194516
C       0.804800   -2.069805   -1.261556
C      -0.060390   -3.167398   -0.774771
N       0.143019   -2.936897   -2.222342
H       1.026098    1.916204    0.113868
H      -0.356666    2.072674   -0.972994
H      -0.609503    2.075056    0.778621
H       0.107420   -0.310446    0.926857
H      -1.221947   -0.165769   -0.203874
H       0.348339   -0.130710   -2.121228
H       3.707439   -1.000863    0.254245
H       2.040623   -1.308869    0.936082
H       3.020238   -2.356699   -1.857038
H       0.378466   -4.085254   -0.392460
H      -1.018878   -2.904628   -0.333299
H      -0.667367   -2.470152   -2.624474
