14

O      -0.043603    1.386152    0.000292
C      -0.036808    0.000199    0.012163
C       1.037536   -0.577921   -0.750000
C       1.924619   -1.086107   -1.380985
C      -0.487557   -0.768543    1.214759
O      -1.495660    0.021593    1.892717
C      -2.366747   -0.150473    0.792702
N      -3.567403    0.167278    0.664044
C      -1.349064   -0.854378   -0.032313
H      -0.468097    1.672049    0.820725
H       2.715178   -1.521678   -1.941207
H       0.056676   -1.500738    1.795713
H      -3.930378    0.629698    1.498707
H      -1.508760   -1.636770   -0.758028
