13

N       0.108121   -1.101324   -0.086364
C       0.030871    0.053077   -0.030307
C      -0.056917    1.468598    0.041448
C      -1.137488    2.343242    0.686417
C      -0.429896    3.516358   -0.034552
O       0.859254    3.605155    0.643888
C       1.201230    2.403266   -0.015943
C       0.175075    2.501758   -1.077305
H      -2.119626    2.132645    0.258460
H      -1.185170    2.398383    1.776765
H      -0.897463    4.479378   -0.218630
H       2.217191    2.033969    0.008830
H       0.174923    2.399646   -2.152917
