20

C      -0.031880    1.591635   -0.006816
C      -0.012210    0.058712   -0.000540
C      -1.378852   -0.537555    0.119595
C      -2.623386   -0.110770    0.819788
C      -3.171617   -1.556185    0.798175
C      -3.074815   -1.499862   -0.707111
N      -2.563388   -0.062223   -0.689198
C      -1.893631   -2.013913    0.075794
C      -1.206223   -3.338875    0.091683
H       0.974046    1.991616   -0.161484
H      -0.679956    1.961911   -0.805599
H      -0.407142    1.986105    0.943081
H       0.452635   -0.308922   -0.925478
H       0.611669   -0.308412    0.825474
H      -2.858421    0.765205    1.413649
H      -3.823431   -2.119949    1.450879
H      -3.675352   -1.933568   -1.497993
H      -0.519791   -3.448791   -0.755977
H      -0.629140   -3.485560    1.012205
H      -1.938901   -4.151265    0.029513
