17

C       0.036649    1.484554    0.208725
C       0.063039   -0.018745    0.311966
O       1.059158   -0.675285    0.505213
C      -1.301755   -0.736975    0.151409
O      -2.303902   -0.090204   -0.043161
C      -1.271718   -2.249623    0.237388
C      -2.671256   -2.871432    0.246276
C      -2.621745   -4.363298    0.009879
O      -3.128581   -5.193229    0.717817
H       1.044851    1.879870    0.332272
H      -0.377991    1.787221   -0.758114
H      -0.633225    1.899765    0.968571
H      -0.678471   -2.608310   -0.616742
H      -0.683787   -2.537417    1.115721
H      -3.195052   -2.675493    1.184913
H      -3.261010   -2.418361   -0.562139
H      -2.061907   -4.659341   -0.909958
