18

C      -0.722474    0.956223    0.292851
N       0.114320   -0.230979    0.145567
C       1.502596   -0.044627   -0.241118
C       1.150300   -0.600652    1.101001
C       1.560164    0.115700    2.355691
O       1.048116    1.402235    2.674583
C       0.696534    0.308080    3.545311
C      -0.675401   -0.114500    3.602521
C      -1.809875   -0.495984    3.715407
H      -0.188194    1.846782    0.643848
H      -1.164582    1.168310   -0.686281
H      -1.529686    0.742324    0.996954
H       1.885919   -0.689595   -1.028449
H       1.887957    0.975574   -0.256426
H       1.236160   -1.680503    1.233539
H       2.625914   -0.001237    2.573798
H       1.193483    0.355941    4.514273
H      -2.814769   -0.829965    3.799343
