21

C       0.023973    1.554994   -0.111759
C       1.594280    1.577538    0.017061
C       1.557028    0.159241    0.649088
C       1.670265   -0.371101    2.072222
C       0.886122   -1.575464    1.467693
C      -0.514260   -0.933125    1.195775
C       0.061405    0.036433    0.158880
C       0.555243   -0.931580   -0.963327
C       1.627690   -1.286039    0.069021
H      -0.455624    2.111796    0.699292
H      -0.405737    1.886780   -1.061432
H       2.113913    1.629505   -0.943673
H       2.004062    2.357801    0.662986
H       2.700518   -0.634813    2.334734
H       1.206883    0.175343    2.901947
H       0.926377   -2.563847    1.926873
H      -1.261641   -1.627469    0.799906
H      -0.920431   -0.459322    2.094365
H      -0.138711   -1.702311   -1.314706
H       0.977254   -0.404149   -1.823214
H       2.538196   -1.856029   -0.131761
