9

F       0.045072    0.093880    0.002708
C      -0.021140    1.397767    0.010791
N      -1.195467    1.925904    0.029619
C      -1.282434    3.290360    0.037995
O      -2.246802    3.977538    0.054798
O       0.005544    3.994442    0.024026
C       1.114060    3.290254    0.005080
N       1.200544    2.001271   -0.002906
H       2.011291    3.904729   -0.004034
