18

C      -0.257134    1.187921    0.084660
O       0.318126   -0.104065   -0.040368
C       0.903330   -0.560675    1.109781
C       2.222874   -0.136662    1.751501
C       2.035296   -1.397343    2.636846
N       0.856653   -1.017811    3.490863
C       0.044899   -1.179097    2.268512
C       1.060265   -1.999900    1.502032
O       1.050540   -3.113428    0.708978
H       0.500126    1.945192    0.328319
H      -0.705090    1.429731   -0.881376
H      -1.032880    1.206629    0.862142
H       3.052998   -0.248270    1.049328
H       2.285071    0.812701    2.290114
H       2.880352   -1.878859    3.123783
H       0.651137   -1.805318    4.105892
H      -1.037033   -1.146757    2.234721
H       0.746599   -3.864323    1.231752
