19

C       0.064026    1.513642   -0.047908
C       0.022769    0.061202    0.028093
C      -0.011209   -1.140924    0.096214
C      -0.047538   -2.591063    0.164241
O       0.085291   -3.135341    1.518845
C      -1.106211   -3.920808    1.338505
C      -1.102979   -5.304137    1.899787
C      -2.284292   -3.014136    1.150614
C      -1.378957   -3.326584   -0.025141
H       0.904687    1.858332   -0.659918
H      -0.855797    1.915977   -0.486489
H       0.176110    1.954631    0.948708
H       0.740883   -3.023045   -0.464720
H      -1.032452   -5.272280    2.993033
H      -2.026974   -5.827208    1.637023
H      -0.252640   -5.880310    1.521918
H      -3.252221   -3.504397    1.108648
H      -2.283366   -2.022549    1.593934
H      -1.721076   -3.770598   -0.950109
