16

N       0.007595    1.347159    0.142886
C      -0.039673   -0.025072    0.031615
N      -1.107193   -0.740168    0.019781
C      -0.649650   -2.102195   -0.003652
C      -1.389227   -3.205168    0.730539
C      -1.403064   -3.177309   -0.763491
C       0.851297   -2.107781   -0.013075
O       1.636789   -3.026030   -0.011602
N       1.155481   -0.745254   -0.017365
H       0.719604    1.803022   -0.411191
H      -0.904687    1.764231    0.014915
H      -0.772553   -3.947734    1.224636
H      -2.281921   -2.895124    1.260170
H      -2.305809   -2.849134   -1.264505
H      -0.796948   -3.901864   -1.296078
H       2.084624   -0.379178    0.112855
