18

C       0.080721    0.620493    0.933070
C       0.315985   -0.733249    0.247915
C       0.671507   -0.639179   -1.227181
C       1.971930    0.068435   -1.586914
O       1.830183    1.477656   -1.548537
C       0.147254   -1.671015   -2.157803
N      -0.395899   -0.298327   -2.196257
H       0.954646    1.268924    0.846212
H      -0.762343    1.151408    0.477320
H      -0.149561    0.478690    1.993502
H       1.120977   -1.270838    0.766243
H      -0.580964   -1.357714    0.353906
H       2.760307   -0.187735   -0.871057
H       2.303724   -0.263775   -2.582222
H       1.053542    1.665623   -2.091340
H       0.719551   -1.960293   -3.035198
H      -0.476182   -2.460980   -1.746833
H      -1.297048   -0.273802   -1.724556
