13

N       0.083690    1.367672    0.174693
C      -0.037350    0.005915    0.063627
C      -1.195374   -0.704440    0.030792
C      -1.206759   -2.153068   -0.013499
O      -2.203564   -2.858770   -0.043279
C       0.161744   -2.714493   -0.025865
F       0.288715   -4.034238   -0.067510
C       1.253464   -1.940240   -0.001925
O       1.180850   -0.578575    0.042311
H       0.955576    1.752553   -0.156748
H      -0.731149    1.902891   -0.079358
H      -2.146057   -0.186146    0.043848
H       2.272702   -2.299145   -0.013624
