20

C      -0.308208    1.475246   -0.000943
N       0.038679    0.058747    0.063326
C       1.352145   -0.442419   -0.307661
C       2.539047    0.505654   -0.314133
O       2.509846    1.198140    0.935150
C       1.803096    0.412368    1.874178
C       2.520421   -0.056319    3.114266
C       1.495604    1.064068    3.183936
C       0.883586   -0.496130    1.111606
H       0.494700    2.163614    0.287215
H      -0.621571    1.704994   -1.024479
H      -1.167501    1.647993    0.654602
H       1.378023   -1.303608   -0.970360
H       3.468484   -0.073708   -0.429204
H       2.507447    1.262685   -1.105658
H       2.266202   -1.023580    3.535762
H       3.564003    0.223347    3.202777
H       1.869806    2.071727    3.326037
H       0.535858    0.864966    3.648279
H       0.526382   -1.398509    1.600369
