20

C      -0.119491    1.547301   -0.003580
C       0.042621    0.035536    0.034167
N       0.883497   -0.482541   -1.075678
C       2.261370   -0.585742   -0.514688
C       2.258225   -0.118563    0.932247
C       0.806883   -0.564930    1.238592
O       0.240972   -0.234358    2.474209
C       0.844437   -2.053728    0.805519
C       1.388331   -1.795790   -0.592470
H       0.842733    2.065589   -0.032344
H      -0.678250    1.841261   -0.896494
H      -0.667429    1.887048    0.880093
H      -0.947182   -0.430558   -0.038108
H       3.082686   -0.399123   -1.195983
H       2.995663   -0.651320    1.543709
H       2.412482    0.955326    1.058358
H       0.770062   -0.633384    3.172247
H       1.521238   -2.661668    1.416795
H      -0.149257   -2.511257    0.815525
H       1.514774   -2.578155   -1.331433
