19

O       0.218950    1.444528   -0.152631
C       0.059934    0.063103   -0.080153
C      -1.365166   -0.613562    0.011985
C      -0.691832   -1.736702    0.871011
C       0.033335   -2.769127   -0.027124
C       0.488714   -2.112404   -1.350312
C       0.900303   -0.634873   -1.171351
C       0.295911   -0.632536    1.257884
O       0.819363   -0.262414    2.273797
H       0.297269    1.774550    0.751333
H      -2.051456   -0.004065    0.603479
H      -1.837911   -0.904589   -0.926870
H      -1.261214   -2.197290    1.678951
H       0.887189   -3.179179    0.524275
H      -0.633560   -3.611259   -0.239722
H       1.307241   -2.683567   -1.797992
H      -0.336903   -2.162890   -2.066859
H       0.765007   -0.080486   -2.106165
H       1.957557   -0.540071   -0.899930
