14

O      -0.158095    0.029741   -0.272576
C      -0.093204    1.199746   -0.084653
N      -1.088471    2.234555   -0.063452
C      -0.222677    3.077782    0.788515
C       0.870374    4.247076    0.696831
O       1.833082    3.162780    1.097226
C       0.953207    2.374273    0.165861
C       1.200222    3.116444   -1.160577
C       1.146493    4.393925   -0.784924
H      -2.066864    2.028046    0.102470
H      -0.353751    2.840629    1.846864
H       0.882536    5.094075    1.381180
H       1.365220    2.650848   -2.120111
H       1.248585    5.312685   -1.342324
