18

C       0.066529    1.561814    0.095630
C       0.001365    0.037822    0.009204
O       0.610962   -0.574830    1.144261
C      -1.437709   -0.474858   -0.031880
C      -1.503963   -1.998801   -0.117089
C      -2.910174   -2.539334   -0.097320
O      -3.916232   -1.881474   -0.011859
C      -3.001789   -4.017191   -0.194897
N      -3.060882   -5.169163   -0.275667
H       1.106795    1.904339    0.135028
H      -0.402193    2.027273   -0.777378
H      -0.443729    1.915145    0.997049
H       0.516794   -0.288693   -0.911016
H       1.522281   -0.271159    1.198214
H      -1.960709   -0.138423    0.869631
H      -1.959730   -0.028837   -0.884240
H      -1.016534   -2.379887   -1.026507
H      -0.949884   -2.456719    0.712335
