21

O       0.324592   -0.128757    0.541949
C       0.107828    1.023991    0.220960
C       1.219244    1.962350   -0.115339
C       2.515256    1.815230    0.672667
C       2.470796    1.370847   -0.747535
C      -1.295637    1.574759    0.100859
C      -1.879789    1.655433   -1.355253
C      -3.226687    1.125480   -0.794202
C      -2.482522    0.660561    0.486317
H       0.931107    2.963342   -0.416651
H       3.046704    2.725827    0.924000
H       2.510239    1.046604    1.436877
H       2.436280    0.303788   -0.934732
H       2.972706    1.966448   -1.501320
H      -1.345830    2.558257    0.580635
H      -1.875825    2.632588   -1.842969
H      -1.397549    0.930440   -2.016973
H      -3.927248    1.940101   -0.589812
H      -3.744613    0.363768   -1.381328
H      -2.175586   -0.386692    0.441834
H      -2.963934    0.846754    1.448625
