21

C       0.275195    1.540122   -0.219528
C       0.041963    0.058687    0.085307
O       0.472430   -0.734462   -1.021430
C       1.407425   -1.716256   -0.591749
C       1.593161   -1.480873    0.885748
C       2.523911   -2.334615    1.688099
O       2.223856   -3.725132    1.567546
C       0.806718   -0.474643    1.278449
C       0.615109    0.110900    2.641438
H       1.344729    1.747540   -0.323570
H      -0.221628    1.806491   -1.156407
H      -0.131948    2.174250    0.574979
H      -1.042280   -0.096541    0.234259
H       1.025987   -2.726743   -0.801482
H       2.349973   -1.609450   -1.153097
H       3.549421   -2.236641    1.310880
H       2.536939   -2.018255    2.740892
H       1.314855   -3.847037    1.861503
H       1.150327   -0.448586    3.412262
H       0.963640    1.149966    2.682473
H      -0.448467    0.128194    2.911363
