19

C       0.658080    0.940937    0.651315
O       0.875952    0.504145   -0.678919
C      -0.070674   -0.413320   -1.170126
C       0.541387   -1.826029   -1.303434
C       0.979590   -2.339226    0.012214
N       1.276957   -2.790200    1.035065
N      -0.401859   -2.687638   -2.010322
C      -0.244826   -4.137291   -1.946434
C      -1.378746   -3.467541   -1.250818
H      -0.302825    1.467105    0.748550
H       0.684161    0.110974    1.368534
H       1.465303    1.637384    0.889259
H      -0.968042   -0.456857   -0.539111
H      -0.378136   -0.108167   -2.176126
H       1.437786   -1.731825   -1.927197
H      -0.399566   -4.657996   -2.886491
H       0.541920   -4.544075   -1.314890
H      -1.332856   -3.436356   -0.164533
H      -2.378792   -3.488281   -1.672638
