17

C       0.028831    1.522435    0.006172
C      -0.015552    0.021365    0.038553
N       0.431436   -0.766638   -1.178461
C      -0.323162   -1.933420   -0.591423
C       0.441893   -2.173833    0.713700
N       1.807518   -1.606158    0.739507
C       0.662026   -0.773904    1.166333
C      -1.329718   -0.821765   -0.141969
O      -2.494251   -0.589156   -0.261397
H       1.052058    1.876708   -0.151030
H      -0.608048    1.920365   -0.790211
H      -0.332653    1.932258    0.954513
H      -0.086920   -0.423450   -1.988028
H      -0.583375   -2.761672   -1.245895
H       0.158093   -2.984754    1.372557
H       2.262715   -1.952518    1.582305
H       0.557890   -0.446069    2.193643
