14

O       0.086455    1.347572   -0.034144
C       0.054902   -0.013048   -0.004540
C       0.045547   -0.828371   -1.109440
N       0.082442   -2.184884   -0.700502
C       0.020608   -2.166008    0.661108
C       0.041788   -0.872050    1.142116
N       0.082453   -0.862368    2.522943
C       0.080715   -2.131389    2.851984
N       0.056810   -2.990193    1.756289
H       0.100901    1.658104    0.876720
H       0.051165   -0.575400   -2.155711
H      -0.218425   -2.937456   -1.295197
H       0.087627   -2.523693    3.857934
H       0.024585   -3.993942    1.791197
