21

C      -0.223283    1.422185   -0.672286
C      -0.086694    0.154662    0.179835
C      -1.374652   -0.646628    0.222699
C      -1.694593   -1.673551   -0.836525
C      -1.444882   -2.113190    0.588335
C      -0.223552   -2.916126    0.951242
O      -0.486222   -4.324895    0.812569
C      -0.058387   -4.936840   -0.304713
O      -0.285396   -6.084617   -0.544620
H       0.710921    1.991607   -0.687966
H      -0.486944    1.174032   -1.705470
H      -1.007453    2.078107   -0.278869
H       0.729536   -0.458729   -0.219364
H       0.208942    0.431773    1.200242
H      -2.224147   -0.064185    0.573514
H      -2.701797   -1.739380   -1.231826
H      -0.918554   -1.885482   -1.567144
H      -2.321565   -2.414229    1.155009
H       0.641365   -2.640983    0.336665
H       0.050432   -2.776755    2.000887
H       0.534329   -4.268224   -0.960721
