18

C       0.032479    1.585704   -0.073889
C       0.068757    0.067368    0.013704
C       1.131647   -0.709782   -0.815964
O       2.398626   -0.111941   -0.412585
C       2.192340   -0.751866    0.846861
C       1.225537   -1.768783    0.341982
C       0.701629   -0.635558    1.226729
C       0.198249   -0.692998    2.637399
H       1.041509    1.995319    0.015116
H      -0.388125    1.915596   -1.030589
H      -0.587654    2.012474    0.722087
H      -0.918115   -0.372185   -0.173219
H       1.052675   -0.873908   -1.888967
H       3.010078   -0.801721    1.554450
H       1.164279   -2.846885    0.398747
H       0.827562   -1.341692    3.257112
H       0.196019    0.300832    3.099594
H      -0.824150   -1.085699    2.683413
