15

C       0.058641    1.502742   -0.015649
C       0.059577    0.015094    0.085728
C      -0.895346   -0.863192    0.829866
C       0.595505   -0.992593    1.082699
C       1.223472   -1.674428   -0.134078
O       0.600188   -0.726048   -1.034476
C       2.685558   -1.584798   -0.189345
N       3.839102   -1.525573   -0.212899
H       1.063312    1.881780   -0.223576
H      -0.605844    1.828193   -0.823610
H      -0.300614    1.946876    0.916901
H      -1.439232   -0.387356    1.640056
H      -1.439109   -1.643962    0.304925
H       1.066689   -0.870275    2.047446
H       0.915834   -2.705878   -0.343502
