21

O      -0.100863    1.432261   -0.004388
C      -0.062823    0.034423    0.021717
C      -0.549889   -0.706030    1.241277
C      -1.377542   -0.693236   -0.028517
C      -2.694064    0.095404   -0.095330
C      -3.398114   -0.472873   -1.337906
C      -3.012193   -1.960917   -1.312782
O      -3.153367   -2.643020   -2.547383
C      -1.530142   -1.943519   -0.904912
H       0.551083    1.760102    0.623391
H       0.763411   -0.405233   -0.539624
H      -0.046942   -1.624195    1.530297
H      -0.907660   -0.100543    2.069259
H      -3.297249   -0.096892    0.800592
H      -2.520696    1.171759   -0.148217
H      -4.480484   -0.306949   -1.336231
H      -2.989565   -0.028350   -2.253311
H      -3.599632   -2.467151   -0.528470
H      -4.088382   -2.656623   -2.774146
H      -0.933102   -1.862298   -1.821063
H      -1.228693   -2.864491   -0.398080
