11

F      -0.004533    0.051061    0.003918
C      -0.023284    1.370295    0.010774
N      -1.197329    1.954355    0.029123
C      -1.185804    3.288361    0.035643
C       0.012840    4.006875    0.023487
N       1.206289    3.389280    0.004707
C       1.192375    2.066783   -0.001727
C      -0.006257    5.442198    0.030918
N      -0.061746    6.597372    0.037426
H      -2.144091    3.797930    0.050785
H       2.139692    1.537173   -0.016834
