19

C       0.033962    1.436985    0.489043
C       1.316197    0.776007    0.045775
O       2.312727    0.549422    0.992317
C       2.627045   -0.796663    1.345568
C       2.030557   -1.885368    0.414741
C       0.784044   -1.904073    1.338522
C       1.687733   -1.327855    2.462703
O      -0.254940   -0.993421    0.982498
C       0.018126   -0.003967    0.040813
H      -0.064311    1.593744    1.557196
H      -0.419382    2.195454   -0.139223
H       1.709895    1.051121   -0.932463
H       3.703535   -0.815431    1.532178
H       1.905083   -1.669793   -0.646836
H       2.590451   -2.817863    0.523709
H       0.294221   -2.863996    1.519144
H       2.159001   -2.115949    3.058027
H       1.236852   -0.581655    3.119309
H      -0.404108   -0.219122   -0.940544
