18

O       0.059752    1.403847    0.121560
C       0.002616    0.014193   -0.025132
C      -1.450787   -0.501279    0.059707
C      -1.600445   -1.943820   -0.400950
N      -1.746410   -2.134154   -1.855753
C      -0.535522   -2.630182   -1.193559
C       0.745008   -1.910414   -1.574690
C       0.659428   -0.416830   -1.332685
O       1.118427    0.416249   -2.082844
H       0.497084    1.723837   -0.684955
H       0.581767   -0.476489    0.778418
H      -1.794288   -0.389467    1.092124
H      -2.074013    0.146906   -0.563408
H      -2.203970   -2.582716    0.239651
H      -2.387506   -2.895008   -2.060953
H      -0.433455   -3.705566   -1.062924
H       1.570138   -2.286072   -0.952973
H       1.010944   -2.088777   -2.620401
