21

C      -0.048625    1.196255    2.604680
O       0.077082   -0.191601    2.410658
C       0.681877   -0.524260    1.174755
C       0.664673   -2.044201    1.044213
C      -0.765844   -2.544789    0.863137
C       1.773984   -2.768149    0.205221
C       2.854656   -2.407886    1.253433
C       1.583094   -2.904533    1.978182
O       1.513111   -4.003528    0.980464
H      -0.675403    1.662661    1.827939
H      -0.520033    1.349870    3.578461
H       0.931018    1.700767    2.600696
H       0.110526   -0.082106    0.339742
H       1.692750   -0.096202    1.127025
H      -1.187917   -2.163021   -0.074115
H      -0.798798   -3.633338    0.841265
H      -1.393006   -2.177506    1.679913
H       1.862232   -2.869962   -0.878002
H       3.683300   -3.115050    1.286568
H       3.184047   -1.375936    1.373258
H       1.437849   -3.168723    3.025759
