16

C      -0.040609    1.578555   -0.013947
C       0.005025    0.070501    0.022325
C      -1.204209   -0.684182    0.667882
O      -1.035486   -2.081281    0.456118
C      -0.313109   -1.483388    1.530972
C       0.935583   -0.783255    0.921345
O       1.495384   -1.440393   -0.248074
C       0.680966   -0.703883   -1.101671
N       0.614509   -0.684447   -2.350837
H       0.946246    1.998821   -0.227280
H      -0.724775    1.915067   -0.799431
H      -0.389757    1.986879    0.940439
H      -2.209725   -0.309331    0.821453
H      -0.445674   -1.902857    2.521210
H       1.690919   -0.378608    1.593600
H       1.258438   -1.354620   -2.774532
