23

O      -0.071151    1.432307   -0.163327
C       0.011417    0.015397   -0.104922
C      -1.403124   -0.535725    0.013311
C      -1.443336   -2.064527    0.084154
C      -2.865895   -2.623644    0.199666
C      -2.897572   -4.141049    0.220715
C      -4.258757   -4.852560    0.047433
C      -3.595588   -5.513401   -1.176813
O      -2.400117   -4.724016   -1.012843
H       0.820897    1.781623   -0.244731
H       0.494257   -0.393380   -1.007768
H       0.611850   -0.312688    0.759887
H      -1.871348   -0.101095    0.905469
H      -1.985203   -0.181961   -0.846664
H      -0.973678   -2.494429   -0.808844
H      -0.849014   -2.409683    0.941837
H      -3.346302   -2.252620    1.116007
H      -3.473132   -2.270500   -0.644030
H      -2.315738   -4.516459    1.076379
H      -4.561871   -5.521292    0.854222
H      -5.084123   -4.177738   -0.190177
H      -3.392958   -6.587222   -1.070833
H      -4.072546   -5.339977   -2.148619
