21

C       0.588543    1.363804   -0.359310
O       0.875222   -0.014117   -0.408274
C      -0.188270   -0.775992   -0.933020
C       0.238506   -2.215137   -0.927347
C       0.531070   -3.158433    0.264454
C       0.474185   -3.983465   -1.039828
O      -0.735461   -3.214432   -1.435219
C       1.362900   -2.922452   -1.746613
C       1.346269   -2.825804   -3.259307
H       0.383439    1.773879   -1.360740
H      -0.280595    1.577020    0.282690
H       1.466358    1.864915    0.055411
H      -1.103470   -0.658847   -0.328764
H      -0.431752   -0.466454   -1.963549
H       1.490424   -3.058170    0.776440
H      -0.308886   -3.313074    0.942617
H       0.440638   -5.064729   -1.176196
H       2.367429   -2.811465   -1.326962
H       0.328850   -2.943872   -3.638526
H       1.735203   -1.857247   -3.592049
H       1.976744   -3.601834   -3.706753
