17

C      -0.249822    1.571754    0.090437
C       0.003743    0.076167    0.071807
C      -1.166842   -0.749491   -0.428087
O       1.228623   -0.221463   -0.724024
C       1.876774   -0.812977    0.330949
O       2.949677   -1.322860    0.350418
C       0.734795   -0.517926    1.285914
C       0.755323   -0.175073    2.708086
O       0.201054   -1.408635    2.231865
H       0.629618    2.113751    0.447984
H      -0.490798    1.929768   -0.914878
H      -1.095185    1.805531    0.745408
H      -1.450129   -0.436776   -1.437219
H      -0.915213   -1.812474   -0.448108
H      -2.028588   -0.615382    0.232566
H       1.686098   -0.266435    3.263926
H       0.033539    0.543843    3.091616
