22

C      -0.056533    1.608077   -0.157616
C      -0.117407    0.078371   -0.161889
C       0.848939   -0.554145   -1.174040
O       2.202413   -0.191506   -0.896365
C       0.684628   -2.065848   -1.313003
C       0.959720   -2.890808   -0.068861
C      -0.387296   -2.546500   -2.262805
C       1.069730   -2.661327   -2.643960
H       0.963127    1.952187    0.034968
H      -0.365123    2.015775   -1.126787
H      -0.714942    2.030774    0.607292
H       0.115087   -0.302275    0.842480
H      -1.134970   -0.262157   -0.388580
H       0.652245   -0.108408   -2.158010
H       2.405970   -0.484143   -0.001543
H       0.266110   -2.655164    0.745763
H       0.861648   -3.959235   -0.283174
H       1.981246   -2.731488    0.297887
H      -0.926114   -3.453487   -2.008990
H      -0.991895   -1.805029   -2.775806
H       1.455099   -1.994386   -3.407758
H       1.519509   -3.648660   -2.651271
