20

C      -0.060020    1.535944    0.003306
C      -0.025648    0.026921   -0.010621
C       0.011051   -0.690876   -1.206011
C       0.065295   -2.079766   -1.208179
C       0.089470   -2.800199   -0.010441
N       0.208491   -4.197093   -0.019717
C       0.053865   -2.096962    1.210343
C       0.086470   -2.846639    2.517389
C      -0.006081   -0.705792    1.179254
H       0.938955    1.964106    0.156497
H      -0.440715    1.933855   -0.942098
H      -0.697762    1.916365    0.807962
H      -0.009306   -0.159485   -2.153302
H       0.087447   -2.618982   -2.151589
H      -0.062049   -4.623222   -0.894926
H      -0.237658   -4.664005    0.756953
H       0.962809   -3.503177    2.582888
H       0.116579   -2.157561    3.364898
H      -0.799125   -3.484692    2.651025
H      -0.037436   -0.172138    2.126611
