19

C       0.190728    1.577022   -0.038474
C       0.049678    0.065039    0.042607
O       0.676114   -0.508198   -1.110210
C       1.217805   -1.781147   -0.790679
C       1.473296   -1.774909    0.708493
C       1.662285   -3.072903    1.445762
N       2.212978   -0.554679    1.107161
C       0.736855   -0.599079    1.222700
H       1.246535    1.851013    0.022113
H      -0.216641    1.944881   -0.984094
H      -0.353291    2.058611    0.780735
H      -1.018687   -0.213676    0.068160
H       0.512414   -2.592951   -1.037202
H       2.126806   -1.916594   -1.386964
H       2.595765   -3.564706    1.148369
H       1.701292   -2.909471    2.527737
H       0.841272   -3.768367    1.239967
H       2.616821   -0.706361    2.029671
H       0.267754   -0.587523    2.201453
