16

C       0.053292    1.547444   -0.000964
C      -0.041936    0.053941    0.011121
C       0.088672   -0.795118    1.255805
C      -0.644339   -2.096222    1.363139
C      -0.384312   -2.811242    0.269576
C       0.450102   -1.959499   -0.653157
N       1.143981   -0.921010    0.240830
C      -0.414927   -0.781207   -1.171320
O      -0.908834   -0.512655   -2.229613
H       0.732723    1.899717    0.780158
H       0.414419    1.905602   -0.969575
H      -0.931358    1.992256    0.177364
H       0.369044   -0.245761    2.151655
H      -1.273578   -2.364784    2.200384
H      -0.788529   -3.776139   -0.004383
H       1.098502   -2.452406   -1.375645
