15

N      -0.094450    1.258671    0.068365
C       0.010286    0.000044    0.024135
C      -1.202186   -0.910989   -0.016750
N      -0.620235   -2.228738    0.155446
C       0.758462   -2.225426   -0.010216
N       1.578842   -3.179798   -0.132869
N       1.144113   -0.849586    0.000723
C       2.457337   -0.367869    0.007458
O       3.458343   -1.024311    0.037958
H       0.794165    1.754266    0.088064
H      -1.899598   -0.647599    0.783645
H      -1.722345   -0.788164   -0.976092
H      -1.116202   -3.040305   -0.174873
H       1.095238   -4.076675   -0.108750
H       2.464730    0.736512   -0.021258
