18

O       0.131460    1.366078   -0.176182
C       0.067698   -0.023384   -0.083015
C       1.132634   -0.733425   -0.851638
C       1.211223   -0.718875    0.674965
C       2.181753    0.094629    1.343433
N       2.933406    0.772365    1.905388
C      -1.309263   -0.608402    0.027345
C      -2.400348    0.115474    0.777417
C      -2.455240    0.017992   -0.726305
H       0.102648    1.742200    0.711325
H       0.903025   -1.685599   -1.315779
H       1.841799   -0.109729   -1.381491
H       0.966104   -1.641103    1.191060
H      -1.313981   -1.692193    0.101729
H      -3.090401   -0.476929    1.367155
H      -2.172174    1.086961    1.201917
H      -2.239386    0.920339   -1.286057
H      -3.188163   -0.639336   -1.179845
