13

N       0.077209    1.293002    0.056459
C      -0.037520   -0.068539   -0.011910
N      -1.140866   -0.775167   -0.002974
C      -0.649570   -2.042691    0.189371
C       0.681849   -2.049254    0.286615
O       1.234444   -3.255483   -0.060695
C       0.064718   -4.092767    0.136529
O      -1.123547   -3.299438   -0.082666
O       1.143569   -0.775502    0.097583
H       0.883473    1.678219   -0.415328
H      -0.786940    1.765700   -0.165272
H       0.090744   -4.919255   -0.572768
H       0.063729   -4.435977    1.181313
