15

O       0.003375    1.422331    0.007702
C       0.009164    0.005318    0.002488
C      -1.406835   -0.465091    0.012142
C      -2.542915    0.280841    0.022942
N      -3.592438   -0.639268    0.028451
C      -4.958187   -0.356293    0.039792
O      -5.816976   -1.196040    0.044174
C      -3.010018   -1.894646    0.020438
N      -1.710795   -1.822989    0.010725
H       0.914837    1.726609    0.001659
H       0.518556   -0.399734   -0.886785
H       0.532739   -0.406278    0.880430
H      -2.710439    1.343378    0.027258
H      -5.151328    0.731072    0.044459
H      -3.614456   -2.787628    0.022591
