20

N       0.352611    0.530414    1.032144
C       0.192850   -0.408384    0.047324
O       1.125400   -0.747804   -0.660947
C      -1.190802   -0.993323   -0.112315
C      -2.373108   -0.387187    0.625203
C      -2.794946    0.987219    0.106636
O      -3.892458    1.418285    0.898720
C      -1.445591   -1.612098   -1.477529
C      -1.168001   -2.506450   -0.314079
H       1.300049    0.811513    1.228586
H      -0.334739    0.667332    1.752190
H      -3.234338   -1.057492    0.531678
H      -2.180695   -0.315717    1.704391
H      -1.954359    1.694197    0.168535
H      -3.071868    0.904489   -0.955579
H      -4.187653    2.270532    0.565584
H      -2.460020   -1.556884   -1.857457
H      -0.657086   -1.489458   -2.209245
H      -0.195932   -2.982698   -0.274196
H      -1.984931   -3.070668    0.122339
