17

N      -0.011836    0.995713   -0.750385
C      -0.010094   -0.028460    0.149015
O       0.912891   -0.285141    0.897247
C      -1.273092   -0.841990    0.134714
C      -2.035572   -1.467878    1.321969
C      -2.868859   -1.759769    0.049583
N      -2.586465   -0.351557   -0.476768
C      -1.550318   -2.178350   -0.660500
O      -1.491291   -2.169183   -2.041339
H       0.842767    1.508616   -0.895177
H      -0.755949    1.075565   -1.423350
H      -1.568554   -2.307651    1.842639
H      -2.474962   -0.750502    2.018991
H      -3.860793   -2.204377   -0.037179
H      -3.014871    0.338416    0.146752
H      -1.040799   -3.066248   -0.286759
H      -1.999206   -1.390641   -2.314081
