17

O      -0.567407    1.291366    0.878827
C      -0.135758    0.127369    0.182210
C       0.792046   -0.801482    1.005595
N       0.044610   -2.044587    1.310748
C      -1.368636   -1.764489    1.045976
C      -1.987448   -1.129927    2.224388
N      -2.426701   -0.569648    3.135617
C      -1.357059   -0.766204   -0.160980
O      -2.530213   -0.049074   -0.381168
H      -0.799793    1.051791    1.785817
H       0.346564    0.504042   -0.721994
H       1.715835   -1.041819    0.474201
H       1.078379   -0.291612    1.933366
H       0.346210   -2.798506    0.706061
H      -1.915416   -2.682556    0.819601
H      -1.139487   -1.367519   -1.052514
H      -2.406249    0.801668    0.067836
