16

C      -0.149032    1.481877   -0.158455
C      -0.012141   -0.004551    0.081908
O       1.040891   -0.566468    0.267030
C      -1.302696   -0.777735    0.084726
O      -2.524180   -0.163133   -0.425849
C      -2.962889   -1.482875    0.001010
C      -1.646505   -2.213236   -0.431530
N      -1.379953   -2.834528    0.905318
C      -2.032117   -1.536507    1.255904
H       0.834343    1.951413   -0.123363
H      -0.623672    1.657828   -1.129834
H      -0.812781    1.926969    0.590804
H      -4.010966   -1.756185   -0.128089
H      -1.376428   -2.668969   -1.383800
H      -2.031265   -3.606777    1.068468
H      -2.210526   -1.192338    2.274842
