15

C       0.095604    1.410037   -0.379647
C       0.041185    0.000561    0.237551
O       0.480923    0.024212    1.570021
C      -1.354037   -0.576806    0.124510
C      -1.975542   -0.929596   -1.076992
N      -3.202045   -1.416517   -1.083230
N      -3.839645   -1.552335    0.086485
N      -3.267542   -1.230374    1.216434
N      -2.024668   -0.748803    1.253190
H       1.110004    1.799753   -0.269862
H      -0.160674    1.399526   -1.444034
H      -0.592515    2.079563    0.144399
H       0.712447   -0.655107   -0.339880
H      -0.290092   -0.149043    2.130871
H      -1.484286   -0.831121   -2.041585
