23

C       0.132485    1.279778   -0.624145
C      -0.006576   -0.129315   -0.030102
C      -1.450101   -0.588218    0.132363
C      -2.337005    0.332636    0.954260
C      -2.102420   -1.319868   -1.032253
O      -1.407391   -1.558771   -2.219087
C      -1.787261   -2.077428    0.237515
C      -0.815112   -3.245215    0.307625
O       0.171127   -3.302369   -0.732773
H       1.186443    1.526454   -0.786402
H      -0.380411    1.338193   -1.588903
H      -0.286176    2.047272    0.032974
H       0.516990   -0.814803   -0.701030
H       0.507514   -0.172393    0.940441
H      -2.402458    1.333854    0.516661
H      -3.356624   -0.060358    1.019365
H      -1.960334    0.439677    1.979522
H      -3.146792   -1.089258   -1.234494
H      -0.773536   -2.269708   -2.046505
H      -2.648514   -2.286572    0.870957
H      -0.324734   -3.279424    1.290546
H      -1.387445   -4.173896    0.205493
H       0.917584   -2.756748   -0.469451
