16

C       0.095701    1.511830    0.196222
O       1.508935    1.435216   -0.168205
C       1.287151    0.207656   -0.906608
C       1.517878   -1.209127   -0.338482
N       0.774874   -0.762390    0.880423
C      -0.039198    0.031826   -0.150187
C      -0.790618   -1.061062   -0.916547
O      -0.256528   -1.297685   -2.233280
C       0.359596   -1.963506   -1.118909
H      -0.043962    1.782154    1.245350
H      -0.446375    2.199194   -0.465015
H       1.362942    0.359100   -1.979594
H       2.466282   -1.736004   -0.217780
H       0.222694   -1.520500    1.285776
H      -1.815198   -1.372125   -0.744693
H       0.305943   -3.048194   -1.121778
