17

C       0.188629    1.466020   -0.020249
C      -0.053315    0.003245   -0.023903
C      -1.155784   -0.786897    0.083411
N      -2.498864   -0.442848    0.275302
C      -0.714447   -2.163589    0.024707
N      -1.593398   -3.279115    0.037529
C       0.634530   -2.094005   -0.115233
O       1.552174   -3.072797   -0.242527
O       1.071136   -0.822188   -0.159968
H       0.884000    1.769132    0.773247
H       0.599800    1.833087   -0.970289
H      -0.754466    1.990785    0.158362
H      -2.769747    0.409508   -0.197138
H      -3.095172   -1.207539   -0.023147
H      -1.743745   -3.632880    0.978410
H      -1.218764   -4.044736   -0.511885
H       2.395926   -2.660238   -0.460725
