15

O      -0.638550    0.580057    0.774106
C      -0.156644    1.159970   -0.161453
C       1.296066    1.619450   -0.215011
N       1.407471    2.759122   -1.117230
C       1.526191    4.083639   -0.560793
C       2.682811    3.464150   -1.302453
C       3.900734    3.118257   -0.520877
O       5.019547    3.236960   -0.953642
H      -0.734349    1.396259   -1.081813
H       1.640505    1.789138    0.814339
H       1.879458    0.784770   -0.628341
H       0.957316    4.872535   -1.044306
H       1.626687    4.180884    0.520522
H       2.888631    3.772140   -2.324087
H       3.717276    2.749873    0.512728
