20

C      -0.011322    1.450134    0.024618
N      -0.024092   -0.003050    0.007258
C      -1.360350   -0.549137   -0.213759
C      -1.298531   -2.062423   -0.425337
C      -0.673056   -2.751784    0.796860
O      -0.493413   -4.124930    0.601946
C       0.644483   -2.071331    1.136399
O       1.640274   -2.729267    1.343866
C       0.611233   -0.554237    1.202036
H       1.017412    1.810811    0.120976
H      -0.419842    1.833164   -0.915323
H      -0.602462    1.879139    0.856444
H      -2.043417   -0.311859    0.628608
H      -1.779289   -0.067686   -1.103075
H      -2.299464   -2.469361   -0.596953
H      -0.688282   -2.288854   -1.305676
H      -1.336911   -2.567239    1.664035
H       0.427889   -4.300137    0.852769
H       1.638598   -0.189742    1.281552
H       0.078753   -0.262871    2.134396
