21

C       0.032632    1.558503    0.073415
C      -0.030730    0.020338    0.033103
C       0.743797   -0.590022    1.217897
C      -1.449950   -0.481750   -0.019238
C      -1.971249   -1.289835   -0.952299
C      -3.372158   -1.667666   -0.612617
O      -3.482054   -2.386237    0.642950
C      -3.700030   -0.975180    0.644539
C      -2.486335   -0.149744    1.052192
H       1.072237    1.900515    0.044616
H      -0.494559    2.000616   -0.777583
H      -0.418081    1.951920    0.991109
H       0.460587   -0.312388   -0.890235
H       0.323347   -0.268689    2.176903
H       0.715178   -1.682928    1.187109
H       1.791494   -0.272580    1.194025
H      -1.442184   -1.666212   -1.820006
H      -4.104553   -1.946796   -1.363853
H      -4.703943   -0.656717    0.912927
H      -2.143328   -0.410032    2.060286
H      -2.727751    0.920756    1.065032
