19

C       0.030556    1.532342    0.001394
C       0.003997    0.035118    0.016358
C       0.481128   -1.052440   -0.960476
C       1.220250   -1.794602    0.154769
C       0.457562   -0.910757    1.190825
O       1.131244   -0.403477    2.301228
C      -0.847144   -1.592840    1.600942
O      -1.533831   -1.809667    0.366995
C      -0.980609   -0.907585   -0.573355
H       1.034408    1.922652    0.207595
H      -0.278852    1.921595   -0.973908
H      -0.645202    1.948513    0.757074
H       0.811698   -0.949448   -1.988576
H       1.096824   -2.880562    0.230377
H       2.288712   -1.552720    0.152876
H       1.991127   -0.078468    2.016059
H      -0.687843   -2.558866    2.089846
H      -1.428061   -0.941316    2.271302
H      -1.688634   -0.597029   -1.333287
