18

C       0.081473    1.536147   -0.142156
C       0.012522    0.023621    0.075381
O       0.610337   -0.356117    1.305685
C      -1.427691   -0.503673    0.015078
C      -1.558681   -2.030504    0.080559
O      -2.772930   -2.217277    0.798545
C      -2.786892   -1.197933    1.756752
O      -2.124513   -0.069537    1.194113
H       1.113428    1.880743   -0.039339
H      -0.280861    1.809468   -1.138935
H      -0.536114    2.056175    0.597387
H       0.594644   -0.483050   -0.705279
H       0.010056   -0.034057    1.990726
H      -1.942009   -0.104755   -0.869967
H      -1.662640   -2.505782   -0.896410
H      -0.704792   -2.463494    0.619987
H      -3.827482   -0.945736    1.988344
H      -2.257908   -1.502472    2.676692
