19

C       1.052608    1.483227    0.053344
C       0.187952    0.220507    0.001100
C       0.539514   -0.718410   -1.182854
O       0.751536    0.044370   -2.354752
C       1.779466   -1.520349   -0.710977
C       1.734102   -1.422343    0.808344
O       2.581604   -1.744333    1.604844
C       0.443517   -0.710126    1.205695
O       0.535092   -0.096148    2.457826
H       2.122461    1.249606    0.095695
H       0.882341    2.098056   -0.831943
H       0.808481    2.059895    0.947864
H      -0.865082    0.510221   -0.054111
H      -0.301256   -1.413237   -1.331428
H       0.877598   -0.560768   -3.092041
H       1.798244   -2.561374   -1.047349
H       2.700613   -1.045337   -1.065385
H      -0.346808   -1.486601    1.210913
H       1.321427   -0.476721    2.878046
