20

C       0.126337    1.596827    0.928864
C       0.104082    0.124430    0.551755
C       0.747985   -0.405441   -0.781035
C       2.183568    0.104315   -0.622092
O       2.415696   -0.222904    0.771307
C       1.167137   -0.842698    1.137501
C       0.897492   -1.794156   -0.061526
C      -0.299846   -2.734911   -0.032318
H       1.147446    1.977209    1.007359
H      -0.414363    2.203568    0.193715
H      -0.357482    1.750925    1.899589
H      -0.902433   -0.280212    0.664466
H       0.269372   -0.289866   -1.754142
H       2.903284   -0.424505   -1.257933
H       2.298214    1.182467   -0.780305
H       1.210145   -1.157758    2.180173
H       1.791920   -2.354211   -0.355111
H      -1.235650   -2.244836    0.248130
H      -0.450539   -3.188167   -1.018337
H      -0.129523   -3.550700    0.678939
