25

C      -0.030538    1.578569    0.046183
C       0.004688    0.049336    0.019632
C       0.703611   -0.501123   -1.240342
C       0.746998   -1.959110   -1.287451
C       0.759482   -3.164373   -1.302900
C       0.808307   -4.627524   -1.324327
C       1.468836   -5.129126   -2.624936
C       1.509878   -5.163281   -0.051417
C       1.438060   -6.683943    0.113007
H       0.980893    2.000021    0.029689
H      -0.568996    1.978794   -0.820285
H      -0.529749    1.947705    0.947169
H       0.523397   -0.331879    0.906415
H      -1.013823   -0.352587    0.062679
H       0.189955   -0.118222   -2.133087
H       1.725116   -0.099243   -1.289529
H      -0.226494   -5.001683   -1.309748
H       1.431428   -6.220039   -2.691031
H       0.958243   -4.717965   -3.499609
H       2.516881   -4.815682   -2.668624
H       2.556369   -4.834478   -0.065413
H       1.049702   -4.681064    0.817877
H       0.399513   -7.034523    0.109344
H       1.969781   -7.211088   -0.684784
H       1.886946   -6.990678    1.062796
