18

C      -0.049550    1.528785   -0.002482
C       0.040397    0.031378    0.033126
C      -0.831078   -0.838334    0.894131
C       0.663961   -0.923122    1.055991
C       1.253388   -1.794774   -0.053980
C       0.631916   -0.816038   -1.123270
C      -0.281617   -1.354122   -2.114429
C      -1.050899   -1.811323   -2.918850
H       0.900794    1.982318   -0.307973
H      -0.818822    1.860884   -0.710149
H      -0.310761    1.930936    0.981866
H      -1.354955   -0.311623    1.685920
H      -1.388930   -1.667482    0.465007
H       1.152952   -0.685976    1.993570
H       2.344437   -1.791430   -0.092688
H       0.898421   -2.828449   -0.094792
H       1.432552   -0.260974   -1.622960
H      -1.725645   -2.210053   -3.635069
