15

N      -0.165560    1.449304   -0.201341
C      -0.067688    0.048534   -0.055578
C      -0.273487   -0.907481   -1.193450
C      -1.192895   -0.976853    0.004735
C      -0.490765   -1.665174    1.207333
O       0.826444   -2.093794    0.845231
C       0.623903   -0.709445    1.165466
C       1.390735   -0.089104    2.194637
N       1.992551    0.484782    2.999527
H      -0.424109    1.909661    0.665643
H       0.706970    1.857280   -0.523359
H      -0.723622   -0.438259   -2.061385
H       0.428899   -1.705453   -1.395837
H      -2.259347   -0.809867   -0.051129
H      -0.957218   -2.149325    2.056220
