13

C      -0.014708    1.519669   -0.060771
C      -0.006875    0.034426    0.077848
N      -0.041783   -0.732368   -1.003208
O      -0.025175   -2.094976   -0.595582
C       0.019737   -2.075984    0.734069
C       0.033227   -0.807589    1.212022
O       0.079436   -0.884132    2.576108
C       0.089866   -2.237455    2.793783
N       0.055635   -3.004203    1.740330
H       0.883143    1.956656    0.387501
H      -0.050877    1.791134   -1.116981
H      -0.882198    1.952900    0.446984
H       0.125454   -2.546046    3.826956
