19

C       0.130103    1.438742    0.326828
C      -0.007734   -0.074150    0.124462
C       0.694058   -0.553365   -1.189677
O       1.802884   -1.365305   -0.736310
C       1.688727   -1.402092    0.610993
N       0.763582   -0.762435    1.192848
C      -1.442886   -0.589550    0.171301
C      -2.550611    0.096543    0.871416
N      -2.530963    0.031169   -0.604595
H       1.175977    1.732753    0.202743
H      -0.461358    2.008160   -0.399346
H      -0.177389    1.721893    1.335532
H       0.047880   -1.175013   -1.815561
H       1.096199    0.266376   -1.790852
H       2.442958   -2.005341    1.104908
H      -1.476544   -1.677423    0.137118
H      -3.331846   -0.491084    1.344567
H      -2.354712    1.051064    1.349296
H      -2.230637    0.930535   -0.973932
