15

C       0.107479    1.444601   -0.027973
N       0.033521   -0.016632   -0.003137
C       0.121626   -0.666301    1.226139
N       0.263004   -0.019650    2.312654
C      -0.067862   -0.777981   -1.163198
N       0.065599   -2.047271   -1.162759
C      -0.396465   -0.045128   -2.457733
O      -0.429265   -0.634574   -3.507033
H       0.416461    1.760277    0.967566
H       0.844828    1.788995   -0.757685
H      -0.863442    1.900641   -0.248914
H       0.050765   -1.747543    1.114560
H       0.295016   -0.664183    3.099373
H      -0.075668   -2.381211   -2.118470
H      -0.627493    1.033669   -2.401697
