15

C       0.090323    1.450700    0.333448
N       1.131529    2.140907   -0.429522
C       2.183811    1.425437   -0.930011
N       3.327848    1.924875   -1.331741
O       4.038803    0.807157   -1.837658
C       3.281644   -0.291401   -1.702611
C       2.087900    0.009336   -1.131517
C       0.886760   -0.684062   -0.725809
C      -0.052024   -0.001790   -0.057208
H       0.276782    1.508510    1.422404
H      -0.862455    1.969219    0.164646
H       1.324996    3.096223   -0.171056
H       3.722821   -1.212700   -2.051894
H       0.754946   -1.734631   -0.961581
H      -0.961299   -0.490680    0.276267
