23

C       0.101173    1.546061    0.050883
C      -0.021291    0.011531    0.030157
C      -1.485506   -0.457740    0.027084
C      -2.309140   -0.063001    1.250100
O      -3.598975   -0.636673    1.087655
C       0.758476   -0.559006   -1.191704
C       2.146599   -0.944573   -0.621339
O       2.152901   -0.548511    0.746965
C       0.807766   -0.588056    1.188303
H       1.154486    1.841347    0.035961
H      -0.390291    1.990867   -0.821185
H      -0.349255    1.982147    0.948260
H      -1.995781   -0.073228   -0.864546
H      -1.514257   -1.551847   -0.048656
H      -1.826066   -0.433736    2.169026
H      -2.374671    1.032041    1.335207
H      -4.140351   -0.376260    1.838408
H       0.250559   -1.436527   -1.601332
H       0.832188    0.178086   -1.995587
H       2.314342   -2.029294   -0.703061
H       2.979805   -0.437492   -1.116106
H       0.748692   -0.018392    2.120037
H       0.488523   -1.625458    1.393401
