17

C       0.062174    1.446428    0.212474
C       1.310126    0.639590    0.052871
O       1.675827    0.001733    1.285000
C       0.451454   -0.750238    1.242336
C      -0.031810   -0.055149   -0.005534
C       0.354133   -2.222507    1.484721
C       1.172832   -2.563670    2.726059
O       0.512899   -1.535661    3.513131
C      -0.333936   -1.201993    2.417179
H      -0.174771    1.879871    1.179505
H      -0.222302    2.042838   -0.649148
H       2.087664    0.796061   -0.684523
H      -0.556939   -0.515202   -0.831132
H      -0.035511   -2.926414    0.759710
H       0.955126   -3.554675    3.137720
H       2.254600   -2.407287    2.661347
H      -1.370025   -0.957782    2.629901
