17

C       0.168140    1.516110   -0.089610
C      -0.049741   -0.000490    0.024394
C       0.509970   -0.553943    1.296456
O       1.931078   -0.719566    1.422065
C       1.087896   -1.887668    1.618731
C       0.635313   -1.752056    3.065853
O       0.618316   -2.471950    4.017457
C       0.048067   -0.318029    2.753336
O       0.532734    0.811750    3.414174
H       1.236287    1.751207   -0.111299
H      -0.284009    1.902686   -1.006891
H      -0.274140    2.043291    0.760681
H      -1.121666   -0.230290   -0.010337
H       0.417741   -0.515349   -0.822044
H       1.274031   -2.749227    0.989081
H      -1.040608   -0.334957    2.876858
H       1.487848    0.824892    3.272085
