17

N       0.034597    1.444664   -0.058095
C       0.026137    0.034789   -0.031612
C      -1.060626   -0.818747   -0.162627
N      -0.619430   -2.136317   -0.121281
C       0.746687   -2.124406   -0.026368
C       1.148980   -0.825114    0.055248
O       2.487878   -0.657401    0.310336
C       3.049573   -1.984305    0.144311
C       1.894732   -3.037684    0.263533
H       0.822746    1.817772    0.456620
H      -0.815037    1.839889    0.325122
H      -2.103052   -0.588966   -0.313784
H      -1.194117   -2.928720   -0.343790
H       3.497935   -2.040265   -0.855314
H       3.833630   -2.111242    0.893622
H       1.844178   -3.483638    1.267465
H       2.048689   -3.855360   -0.449115
