17

C      -0.065868    1.625788    0.012364
C      -0.027791    0.100757    0.003771
C      -1.393360   -0.534465    0.012806
O      -2.437047    0.081835    0.026577
C      -1.409860   -2.086971    0.003998
O      -0.388580   -2.731504   -0.009607
N      -2.704212   -2.553545    0.014744
C      -3.172445   -3.863675    0.012334
N      -2.419823   -4.882384    0.000013
H       0.948256    2.033265    0.005429
H      -0.598080    2.010909   -0.861539
H      -0.582230    2.001381    0.899814
H       0.509879   -0.297389   -0.866604
H       0.525480   -0.306613    0.860014
H      -3.388705   -1.807204    0.025638
H      -4.269454   -3.878243    0.022422
H      -2.987559   -5.728501    0.000775
