20

C      -0.020104    1.456680   -0.186144
O       1.299204    1.601806    0.374262
C       1.440570    0.177670    0.540225
C       0.013155   -0.080549   -0.001921
C      -0.981264   -0.668569    0.962446
C      -1.328422   -0.240600    2.413582
N      -2.272057   -1.437065    2.205112
C      -2.516358   -0.825232    0.814950
C      -1.054992   -2.104432    1.541829
H      -0.778453    1.986405    0.404703
H      -0.067909    1.809456   -1.223701
H       2.259360   -0.228369   -0.066386
H       1.604130   -0.099858    1.589525
H      -0.007537   -0.638315   -0.942453
H      -0.582832   -0.407133    3.196035
H      -1.854711    0.706205    2.563416
H      -3.134042    0.077285    0.839269
H      -2.892649   -1.544664    0.081684
H      -1.320771   -2.920602    0.863535
H      -0.286519   -2.415270    2.255614
