20

C       0.059086    1.683227    0.378615
C       0.033011    0.170836    0.458267
C       1.060842   -0.762701   -0.139001
C       2.481180   -0.202892   -0.001083
C       2.279678   -0.113243    1.545790
C       0.860659   -0.684898    1.382020
C       0.277377   -1.691361    2.342511
O      -0.969533   -2.231071    1.930114
H       1.067700    2.091646    0.481702
H      -0.337350    2.028110   -0.582848
H      -0.555645    2.129521    1.168685
H      -0.964526   -0.246588    0.331477
H       0.763859   -1.554458   -0.817345
H       3.249380   -0.930644   -0.271284
H       2.694677    0.731077   -0.531277
H       2.941109   -0.797265    2.084592
H       2.360961    0.875106    2.009755
H       0.954280   -2.549936    2.433580
H       0.202624   -1.241627    3.347468
H      -1.633496   -1.542889    2.034707
