16

N       0.103685    1.387881   -0.069909
C       0.071625    0.004713   -0.061784
C      -1.121988   -0.727647   -0.045763
N      -1.159650   -2.055639    0.016797
C       0.018080   -2.678693    0.057628
N       1.216993   -2.095834    0.043894
C       1.253110   -0.763799   -0.005683
C       2.610760   -0.100920    0.016121
O       2.777290    0.871081   -1.022335
H       0.925565    1.778250   -0.513558
H      -0.756996    1.840725   -0.339966
H      -2.079186   -0.207371   -0.081077
H       0.000509   -3.763823    0.102996
H       2.739603    0.460252    0.949142
H       3.379841   -0.879816   -0.026922
H       2.732406    0.405450   -1.864579
