19

C       0.066233    1.600057    0.069564
C       1.627054    1.374794    0.041326
C       1.297139   -0.029403    0.492762
C       1.491377   -0.896668    1.483805
C       0.199529   -1.626170    1.802883
C      -0.526730   -1.039423    3.036250
O      -1.304684   -0.149645    2.206351
C      -0.888786   -0.826207    0.999788
C      -0.124783    0.043560   -0.000273
H      -0.266941    1.984081    1.034754
H      -0.361970    2.191429   -0.742459
H       2.011826    1.426353   -0.982835
H       2.255742    1.988236    0.690505
H       2.369697   -0.976806    2.115465
H       0.229429   -2.716815    1.733564
H      -1.167270   -1.758259    3.566224
H       0.085868   -0.493861    3.763124
H      -1.714898   -1.402958    0.567734
H      -0.270498   -0.290331   -1.034339
