21

C      -0.063579    1.635171   -0.273835
N       0.065039    0.210853   -0.017928
C       1.290204   -0.546454   -0.205744
C       2.640278    0.165222   -0.274994
C       2.774770    0.986604    1.033846
C       1.670750    0.475217    1.970243
C       1.950929    0.134325    3.388878
N       1.129887    1.313622    3.055218
C       0.704873   -0.350811    1.160861
H       0.846042    2.235697   -0.137860
H      -0.400160    1.771964   -1.307025
H      -0.833713    2.039609    0.389234
H       1.181484   -1.472796   -0.765665
H       3.426039   -0.594723   -0.339009
H       2.737089    0.792327   -1.168082
H       3.766846    0.873542    1.481414
H       2.639122    2.056471    0.841208
H       1.411049   -0.673421    3.877266
H       2.963268    0.286409    3.755724
H       1.691087    2.157906    3.146838
H       0.129916   -1.109696    1.686275
