17

O      -0.138280    1.277514    0.068331
C      -0.138679   -0.110346    0.197837
C      -0.877390   -0.766278    1.311666
C      -1.463261   -0.817122   -0.098108
C      -2.688168    0.023872   -0.435350
C      -3.923707   -0.526886    0.113529
C      -4.928275   -1.002247    0.571250
C      -1.328990   -2.118464   -0.807418
O      -0.441505   -2.912931   -0.601347
H       0.329778    1.649444    0.823153
H       0.743370   -0.618365   -0.188667
H      -0.489733   -1.700899    1.701205
H      -1.400944   -0.129279    2.016772
H      -2.527709    1.042692   -0.070721
H      -2.778881    0.108776   -1.526774
H      -5.821336   -1.413281    0.972258
H      -2.110128   -2.316769   -1.573697
