17

C      -0.329131    1.408774   -0.093591
C      -0.449283   -0.038131    0.346576
O      -1.258247   -0.725359   -0.609176
C      -1.431551   -2.061939   -0.326863
C      -2.344913   -2.548635    0.750110
O      -3.410942   -1.589843    0.955090
C      -3.859614   -1.791753   -0.347284
O      -4.839500   -1.353208   -0.847401
C      -2.737876   -2.739622   -0.708521
H       0.280250    1.970710    0.620188
H       0.139578    1.474922   -1.079315
H      -1.317465    1.872626   -0.149716
H       0.541949   -0.514732    0.405504
H      -0.916212   -0.112500    1.338593
H      -0.554472   -2.695277   -0.488937
H      -2.154024   -3.256521    1.544582
H      -2.806991   -3.605852   -1.349995
