23

C      -0.035029    1.608815    0.027423
C       0.005592    0.079589    0.037319
C      -1.401168   -0.544503   -0.065085
C      -1.390320   -2.002910   -0.058056
C      -1.345620   -3.206292   -0.056536
C      -1.336808   -4.668711   -0.030865
C      -2.766033   -5.231267    0.047847
O      -0.648623   -5.127367   -1.193209
C      -0.152544   -6.441560   -1.087073
H       0.971571    2.031456    0.099414
H      -0.490330    1.988562   -0.894140
H      -0.619958    1.996755    0.869023
H       0.615975   -0.288081   -0.794814
H       0.486089   -0.279970    0.954072
H      -2.020689   -0.180606    0.766162
H      -1.890782   -0.186337   -0.980961
H      -0.779102   -5.000474    0.862458
H      -3.273292   -4.849711    0.938151
H      -3.331958   -4.927183   -0.836125
H      -2.753865   -6.323465    0.102944
H       0.427796   -6.635386   -1.992546
H       0.507617   -6.558638   -0.212738
H      -0.949411   -7.196954   -1.018662
