23

C      -0.057880    1.501230   -0.462741
C       0.077159    0.060379    0.056556
C       1.127922   -0.004222    1.175037
C      -1.315227   -0.449162    0.484081
C      -1.514200   -1.976572    0.695522
C      -1.089774   -2.802624   -0.532203
N      -0.750417   -2.448195    1.859295
C      -2.972191   -2.188917    0.911358
N      -4.095249   -2.368222    1.123227
H       0.913039    1.890992   -0.784638
H      -0.744848    1.562963   -1.313243
H      -0.437513    2.166908    0.321662
H       0.430024   -0.554868   -0.780855
H       0.817165    0.609201    2.030404
H       1.275911   -1.024499    1.530942
H       2.086844    0.389862    0.821863
H      -1.617734    0.062573    1.407872
H      -2.044583   -0.145757   -0.275664
H      -0.007621   -2.740192   -0.659246
H      -1.360135   -3.854160   -0.398184
H      -1.583550   -2.439681   -1.437046
H      -1.048524   -1.954104    2.695927
H      -0.940020   -3.433476    2.021896
