11

C      -0.007543    1.555661    0.086506
C       0.012075    0.020966    0.049359
O      -1.291503   -0.527851    0.221264
C       0.650934   -0.477187   -1.174305
C       1.139027   -0.865773   -2.202055
H       1.008242    1.959695    0.049297
H      -0.562722    1.951920   -0.769781
H      -0.493282    1.889294    1.007041
H       0.578120   -0.344649    0.914589
H      -1.785165   -0.359033   -0.589094
H       1.580789   -1.223651   -3.099194
