16

O       0.014664    1.421445   -0.135350
C       0.019030    0.030398    0.140359
C      -1.354969   -0.514487   -0.234442
C      -1.467780   -2.009077    0.014789
O      -1.393487   -2.381079    1.418416
C      -2.691983   -3.006724    1.431570
C      -2.871803   -2.632525   -0.045248
O      -3.723246   -2.750342   -0.870690
H       0.847636    1.791651    0.170687
H       0.795466   -0.492661   -0.442788
H       0.211994   -0.172771    1.203722
H      -2.119745    0.019411    0.339972
H      -1.548325   -0.321842   -1.296117
H      -0.725458   -2.565694   -0.577088
H      -2.649415   -4.084604    1.634809
H      -3.392642   -2.533057    2.130568
