19

C      -0.463717    1.234024   -0.249265
O      -0.243690   -0.178049   -0.367117
C       0.900134   -0.530197   -0.983433
O       1.702936    0.260996   -1.411254
C       1.053152   -2.038203   -1.049500
C       1.554824   -2.487059   -2.413718
C       1.676650   -4.004495   -2.673967
C       0.694790   -3.736081   -3.831998
O       0.538823   -2.357170   -3.437401
H       0.338777    1.703133    0.325625
H      -0.505332    1.698984   -1.237240
H      -1.418069    1.343327    0.265799
H       1.794041   -2.322528   -0.290664
H       0.108455   -2.527713   -0.802795
H       2.447403   -1.907164   -2.677188
H       2.667738   -4.367770   -2.948670
H       1.273301   -4.629076   -1.873761
H       1.128476   -3.825960   -4.836121
H      -0.256228   -4.280463   -3.807846
