19

C      -0.097673    1.422551    0.191097
C       0.050647   -0.075508   -0.062813
C       0.785378   -0.381537   -1.351799
O       1.223336    0.432433   -2.124431
O       0.893642   -1.716893   -1.536159
C       1.575047   -2.128988   -2.731013
C       1.577362   -3.659035   -2.728240
C       2.247995   -4.198688   -3.903626
C       2.806184   -4.616425   -4.882082
H       0.879652    1.907714    0.252232
H      -0.650454    1.903950   -0.619439
H      -0.632039    1.600109    1.128360
H       0.590373   -0.570716    0.753174
H      -0.924643   -0.574504   -0.109487
H       1.057249   -1.732107   -3.608581
H       2.592451   -1.728197   -2.734431
H       2.069205   -4.014212   -1.814769
H       0.542166   -4.018099   -2.684259
H       3.297331   -4.997399   -5.742955
