15

O      -0.010266   -0.059217   -0.059665
C      -0.042493    1.156618   -0.011170
C       1.181559    1.944133   -0.001604
C       2.190692    2.600707    0.006615
C      -1.300625    1.930175    0.041654
C      -2.524125    1.393915    0.042956
C      -3.552712    2.477312    0.103786
O      -2.818401    3.696538    0.137828
C      -1.416852    3.435329    0.102381
H       3.091056    3.166236    0.013453
H      -2.745780    0.335431    0.005786
H      -4.223560    2.460012   -0.770410
H      -4.191407    2.391243    0.997777
H      -0.933230    3.856857    0.995855
H      -0.965148    3.925741   -0.772450
