17

C      -0.266589    1.462351    0.155943
C       0.308224    0.075578   -0.124629
N       0.910406   -0.507658    1.065275
C       0.838662   -1.869105    1.294366
O       0.140867   -2.623573    0.637781
N       1.636088   -2.298693    2.340546
C       1.491884   -3.653483    2.841948
H       0.511005    2.159405    0.489695
H      -0.715370    1.879749   -0.750722
H      -1.033908    1.415396    0.934087
H      -0.472469   -0.619167   -0.439446
H       1.036057    0.130583   -0.948121
H       1.707408   -0.020505    1.446040
H       1.920929   -1.601847    3.010955
H       2.440911   -3.996962    3.263727
H       0.710985   -3.745727    3.609290
H       1.217612   -4.292555    2.002583
