18

C       0.012143    1.499262   -0.013415
C       1.322476    0.731527   -0.033899
C      -0.000201    0.008449    0.025092
C      -0.418757   -0.748750    1.263597
O       0.029011   -2.096897    1.206852
C      -0.439850   -2.733181    0.029222
C       0.012462   -1.968376   -1.210386
O      -0.444465   -0.620257   -1.152344
H      -0.260996    2.043167    0.884747
H      -0.311445    1.957384   -0.941069
H       1.858652    0.697886   -0.975428
H       1.948854    0.747494    0.851356
H       0.016586   -0.308355    2.164774
H      -1.518156   -0.722041    1.352458
H      -0.032726   -3.748978    0.033194
H      -1.541103   -2.793632    0.040540
H       1.110596   -1.993851   -1.280501
H      -0.411905   -2.405706   -2.119121
