19

C      -0.062837    1.454822    0.116853
N      -0.099138    0.008420   -0.100850
C       0.684090   -0.503342   -1.235986
C       0.069795   -0.025664   -2.573206
C       2.105340   -0.037804   -1.174362
N       3.182467    0.372436   -1.081249
C       0.683226   -1.970589   -1.175685
C       0.675953   -3.172388   -1.127337
C       0.671484   -4.626222   -1.067000
H       0.952105    1.877475    0.175103
H      -0.606064    1.971991   -0.679008
H      -0.580135    1.667647    1.055603
H       0.208104   -0.474184    0.736287
H       0.125823    1.061345   -2.660463
H       0.609204   -0.468489   -3.412256
H      -0.975083   -0.340223   -2.602870
H       0.534652   -5.062050   -2.062303
H       1.614826   -5.006817   -0.661400
H      -0.139909   -4.991052   -0.428291
