18

C      -0.023510    1.633831    0.080293
C       0.082902    0.098343    0.009195
N       0.756571   -0.342911   -1.215606
C       0.068500   -0.621159   -2.352586
O      -1.132501   -0.500412   -2.480894
C       0.762934   -0.455118    1.178774
C       1.356169   -0.881695    2.137057
C       2.017140   -1.452666    3.311239
O       2.003128   -2.872114    3.336083
H       0.970102    2.089850    0.103760
H      -0.564554    1.997355   -0.796472
H      -0.564563    1.934738    0.981425
H      -0.932885   -0.308069   -0.055795
H       1.751989   -0.495761   -1.185908
H       0.734004   -0.975243   -3.164151
H       3.074477   -1.165758    3.325894
H       1.562686   -1.027845    4.220692
H       1.089248   -3.154377    3.224145
