22

C      -0.046918    1.008550    1.939695
C       0.154587   -0.438455    1.479783
C      -0.089291   -0.672670   -0.024186
C       0.907426    0.074703   -0.921387
C      -0.033417   -2.163035   -0.310336
N      -1.204090   -2.969395   -0.001088
C      -0.785997   -2.854440   -1.416572
C      -1.727802   -2.128600   -2.312417
O      -1.728661   -2.243628   -3.513133
H       0.668896    1.692002    1.473045
H      -1.054479    1.363172    1.695182
H       0.079296    1.092661    3.023499
H       1.173145   -0.766162    1.732247
H      -0.527734   -1.091340    2.036938
H      -1.103015   -0.322104   -0.252508
H       0.853025    1.155515   -0.768455
H       1.936784   -0.239801   -0.710762
H       0.709773   -0.121662   -1.979946
H       0.943261   -2.607805   -0.108610
H      -0.948958   -3.882742    0.363400
H      -0.285239   -3.692169   -1.896154
H      -2.448715   -1.468710   -1.783433
