18

C       0.006971    1.406643    0.009624
N      -0.041820   -0.039190    0.002076
N      -0.011681   -0.739557   -1.141324
C       0.045113   -1.994052   -0.706076
C       0.056781   -3.373509   -1.285778
C       0.429089   -4.226982   -0.023057
C       0.070100   -3.387240    1.252665
C       0.052462   -2.001593    0.688071
N       0.000718   -0.751868    1.137442
H       1.041645    1.765822    0.006438
H      -0.503748    1.772531   -0.881207
H      -0.494884    1.762944    0.909340
H      -0.930420   -3.647983   -1.677817
H       0.772974   -3.512294   -2.100399
H      -0.062975   -5.202273   -0.025747
H       1.507811   -4.410253   -0.029715
H      -0.912927   -3.665983    1.652114
H       0.794843   -3.534789    2.058131
