16

N       0.085286    1.338310   -0.030421
C      -0.007131   -0.011522    0.007786
C      -1.128447   -0.801445    0.018992
C      -2.501579   -0.366259    0.033177
O      -3.471378   -1.102459    0.049169
C      -0.713647   -2.231915   -0.008914
O       0.058836   -2.596301   -1.186611
C       0.754084   -2.275909    0.014437
C       1.265312   -0.840929    0.065300
H       0.979795    1.773034   -0.173878
H      -0.723907    1.904161   -0.221879
H      -2.647827    0.742438    0.045921
H      -1.362106   -3.009901    0.375803
H       1.336633   -3.076258    0.462080
H       1.936605   -0.612283   -0.770878
H       1.813450   -0.638623    0.994484
