23

C       0.226779    1.375591    0.178548
O      -0.097243    0.025527   -0.043067
C       0.557792   -0.552308   -1.173946
C       2.028901   -0.807044   -0.926253
C       2.271758   -2.085017   -0.621138
C       3.585311   -2.693474   -0.245695
C       1.000347   -2.905214   -0.673019
C      -0.000014   -1.980744   -1.406937
C      -1.466626   -2.175962   -1.030589
H       1.281482    1.515802    0.458756
H       0.023779    1.995048   -0.710667
H      -0.399948    1.729604    1.001577
H       0.375657    0.101515   -2.042835
H       2.778786   -0.023231   -0.939538
H       4.391058   -1.954394   -0.245385
H       3.536369   -3.145963    0.753112
H       3.859545   -3.500653   -0.936854
H       1.137650   -3.863722   -1.188521
H       0.660008   -3.148008    0.344028
H       0.117561   -2.172592   -2.480629
H      -1.629970   -1.964161    0.028530
H      -2.116972   -1.509341   -1.606159
H      -1.780101   -3.206040   -1.231672
