21

C      -0.212969    1.508713   -0.050622
C      -0.044802   -0.010496   -0.003772
C      -1.385023   -0.714349   -0.202664
C       1.124896   -0.529801   -0.930649
O       1.627185    0.313238   -1.925395
C       2.037172   -0.700719    0.320408
O       2.919127    0.400049    0.443841
C       0.779310   -0.517632    1.222759
O       0.944419    0.435104    2.263550
H       0.729424    2.038506    0.102079
H      -0.603053    1.804970   -1.028419
H      -0.911743    1.843181    0.721775
H      -1.828434   -0.439616   -1.166114
H      -1.270935   -1.804419   -0.188884
H      -2.098536   -0.442159    0.583891
H       0.865567   -1.488254   -1.393998
H       2.283484    0.867911   -1.478070
H       2.601415   -1.635829    0.409545
H       2.603489    0.899688    1.213456
H       0.396164   -1.465280    1.617217
H       1.251012   -0.022536    3.053035
