16

C       0.041216    1.361054   -0.120397
O      -0.232925    0.000346    0.170282
C       0.607596   -0.572036    1.112633
C       0.195333   -1.985754    1.557172
O       0.339830   -2.856366    0.441267
C       1.522324   -2.549356    1.206258
C       1.982947   -1.212695    0.726094
N       3.134502   -0.845301    0.355207
O       3.177607    0.527455    0.054712
H       1.038187    1.488259   -0.556100
H      -0.719553    1.686550   -0.832943
H      -0.028836    1.982672    0.785396
H       0.769266    0.091563    1.979079
H      -0.496158   -2.270461    2.340566
H       2.080853   -3.368402    1.638679
H       4.094946    0.649279   -0.213903
