19

C      -0.123676    1.570155   -0.100543
C      -0.056830    0.041374    0.029030
C       1.213921   -0.576062   -0.632263
O       1.824025   -0.821002    0.648049
C       0.593029   -0.513327    1.345605
C       0.867387    0.374815    2.545032
O       1.738241   -0.291341    3.441586
C      -1.323253   -0.570837   -0.333465
C      -2.373354   -1.076577   -0.629427
H       0.847397    2.024112    0.113550
H      -0.410341    1.841447   -1.120631
H      -0.866739    1.993693    0.580725
H       1.025442   -1.504832   -1.182518
H       1.807290    0.107033   -1.250204
H       0.104779   -1.436188    1.683748
H       1.288836    1.337532    2.223078
H      -0.062327    0.574089    3.089125
H       2.511850   -0.548793    2.925768
H      -3.299338   -1.526320   -0.890512
