15

C      -0.000867    1.538767    0.128727
C      -0.011771    0.058337   -0.009290
C       0.004372   -0.773855   -1.091288
O       0.023426   -0.403679   -2.395687
N       0.020699   -2.101890   -0.736021
C      -0.001218   -2.094858    0.580500
N      -0.087517   -3.221002    1.397703
N      -0.009637   -0.833232    1.079944
H       0.889188    1.909441    0.655090
H      -0.003612    1.986703   -0.867808
H      -0.879839    1.922742    0.664324
H       0.042354   -1.222588   -2.904029
H      -0.014643   -4.056139    0.830118
H       0.614994   -3.244659    2.128018
H      -0.151181   -0.583137    2.043548
