16

N      -0.069374    1.278719    0.010688
C      -0.016176    0.020447    0.003671
O       1.141363   -0.718644   -0.007170
C       0.840128   -2.130042   -0.012966
C       0.016972   -2.437537    1.236221
O      -1.203621   -1.690483    1.167555
C      -1.233347   -0.885875    0.006176
O      -1.217727   -1.678121   -1.163937
C       0.002026   -2.424103   -1.255429
H       0.870623    1.681861    0.007214
H       1.794250   -2.658439   -0.021541
H      -0.219792   -3.507317    1.287929
H       0.568877   -2.152324    2.139759
H      -2.160182   -0.318057    0.014795
H       0.543023   -2.128944   -2.162369
H      -0.235272   -3.493298   -1.315950
