13

C       0.000592    1.516590   -0.041291
C      -0.000254    0.023496    0.031491
N      -0.079505   -0.693516   -1.067850
O      -0.057132   -2.021759   -0.674162
C       0.036140   -2.077391    0.675996
C       0.076008   -0.810608    1.181256
C       0.073376   -3.346978    1.284005
C       0.105673   -4.428566    1.810241
H       0.916348    1.928739    0.394440
H      -0.068314    1.839515   -1.081553
H      -0.845301    1.935482    0.513110
H       0.148830   -0.521908    2.216202
H       0.134050   -5.384467    2.272826
