17

C      -0.145887    1.418303   -0.147711
C       1.257153    0.978346    0.113299
C       0.147847   -0.058761    0.055513
C      -0.293660   -0.731150    1.296683
N      -0.283197   -0.019006    2.434648
C      -0.684876   -0.645135    3.537840
C      -1.099728   -1.972261    3.535889
C      -1.071801   -2.616368    2.305178
N      -0.674155   -2.013560    1.184558
H      -0.670954    1.916129    0.658955
H      -0.420695    1.733089   -1.148105
H       1.970283    0.983272   -0.703290
H       1.669669    1.182137    1.094388
H       0.107984   -0.702129   -0.814234
H      -0.673923   -0.062348    4.457027
H      -1.424877   -2.473021    4.439377
H      -1.379341   -3.656028    2.209966
