14

C       0.057383    1.387187    0.006965
O      -0.009927   -0.029976    0.002497
C      -1.227724   -0.597732    0.010295
C      -2.413769    0.059768    0.022111
O      -3.625970   -0.542657    0.029895
N      -3.732842   -1.912833    0.026384
C      -2.631095   -2.581638    0.015238
C      -1.252460   -2.060034    0.005205
O      -0.274044   -2.785312   -0.004079
H       1.117554    1.640359   -0.000708
H      -0.425504    1.811825   -0.882823
H      -0.411035    1.805493    0.907422
H      -2.533661    1.134547    0.026761
H      -2.756530   -3.660888    0.012985
