22

C       0.016155    1.660824   -0.107219
C       0.118193    0.148566    0.042761
C       1.122397   -0.694597   -0.770168
C       2.525381   -0.156931   -0.453651
C       2.251599   -0.689523    0.945938
C       3.296543   -1.040750    1.961967
N       1.240415   -1.690784    0.428615
C       0.786953   -0.505813    1.248954
C       0.174716   -0.649612    2.610508
H       0.982698    2.155063    0.026924
H      -0.366491    1.932318   -1.097498
H      -0.673174    2.077621    0.635313
H      -0.874480   -0.306215   -0.066654
H       0.870044   -1.076881   -1.757902
H       3.297081   -0.762366   -0.938909
H       2.745191    0.904480   -0.609037
H       3.738911   -0.135477    2.394335
H       2.884819   -1.638642    2.778762
H       4.101760   -1.620958    1.498734
H       0.187257    0.305284    3.148897
H      -0.867277   -0.977310    2.528168
H       0.705391   -1.386538    3.218503
