19

C      -0.420214    1.541617    0.331127
C      -0.127842    0.048405    0.271221
C       0.265466   -0.526402   -1.096533
O       1.509634    0.031597   -1.481511
C       1.552619   -1.064119   -0.563948
C       2.240804   -2.314743   -0.954682
O       2.605714   -2.585448   -2.070708
C       1.243334   -0.515164    0.842411
C       2.262412    0.440031    1.447973
H       0.363721    2.115011   -0.169628
H      -1.371820    1.768239   -0.161493
H      -0.492587    1.888928    1.366752
H      -0.959991   -0.521614    0.696043
H      -0.358486   -0.931392   -1.886477
H       2.378763   -3.022168   -0.104994
H       1.035405   -1.342139    1.529707
H       2.550870    1.211405    0.729873
H       1.860895    0.932839    2.339158
H       3.168260   -0.098328    1.746943
