23

C       0.205033    1.582622    0.277284
C       0.130822    0.055886    0.117987
C       0.758448   -0.616081    1.353074
C      -1.362017   -0.380376   -0.019742
C      -2.212885   -0.032762    1.112008
C      -2.910492    0.258090    2.047699
C       0.851854   -0.460260   -1.130435
C       0.826060    0.229905   -2.471769
C       2.114241    0.145449   -1.687820
H       1.235904    1.919873    0.418650
H      -0.211739    2.108482   -0.587643
H      -0.369112    1.892733    1.154493
H       0.237898   -0.321831    2.268965
H       0.709805   -1.708116    1.275354
H       1.811856   -0.334604    1.447856
H      -1.773299    0.067089   -0.933224
H      -1.397108   -1.467276   -0.171484
H      -3.533699    0.509512    2.869661
H       0.817858   -1.546858   -1.190653
H       0.717338   -0.382069   -3.360580
H       0.352886    1.202449   -2.548719
H       2.489573    1.062383   -1.247845
H       2.892155   -0.524717   -2.037001
