19

O      -0.048559    1.350291    0.010552
C       0.047151   -0.027504    0.031517
C       0.627892   -0.954437    1.135128
C       0.049883   -1.888991    0.042002
C      -1.202208   -0.949065   -0.023336
C      -2.067623   -0.937637   -1.281010
C      -1.228262   -0.968120   -2.528201
C       0.097737   -0.983908   -2.409370
C       0.709523   -0.973593   -1.043088
H       0.840392    1.721167   -0.004491
H       1.715690   -0.960600    1.254624
H       0.111345   -0.947890    2.098588
H       0.050670   -2.976748    0.038997
H      -1.807617   -0.938926    0.888884
H      -2.762033   -1.790061   -1.263953
H      -2.706133   -0.042320   -1.275462
H      -1.723617   -0.970394   -3.494624
H       0.750958   -0.999216   -3.276648
H       1.803322   -0.979465   -1.046093
