12

O      -0.137322    1.346586   -0.068061
C      -0.019042   -0.045823   -0.060890
C      -0.392616   -0.736117    1.236818
O      -0.768512    0.125102    2.271297
C      -1.333020   -0.795164    0.048363
O      -2.478819   -0.004366    0.167432
H      -0.126932    1.611885    0.865590
H       0.782666   -0.429638   -0.684325
H       0.145584   -1.620315    1.564284
H      -1.722397    0.265090    2.158406
H      -1.486925   -1.728066   -0.485294
H      -2.225985    0.869405   -0.171230
