12

N       0.076030    1.428167    0.122486
C       0.019321    0.053932   -0.033481
N      -1.158806   -0.483010   -0.131663
O      -1.206339   -1.855585   -0.409072
C      -0.115749   -2.675307   -0.516997
O      -0.259466   -3.847739   -0.731726
C       1.178433   -1.995979   -0.357475
F       2.240155   -2.765808   -0.463200
C       1.259712   -0.678716   -0.134583
H       0.804040    1.764864    0.736040
H      -0.825440    1.843019    0.318626
H       2.214943   -0.174286   -0.045558
