19

C      -0.394622    1.556199    0.125560
C      -0.024034    0.072668    0.045768
C       1.260780   -0.294993   -0.791616
C       1.748013   -1.223864    0.356188
C       0.725859   -0.544880    1.263243
C       0.920670    0.048736    2.587170
O       0.113948   -1.123753    2.388991
C      -1.171160   -0.738684   -0.339079
C      -2.118325   -1.404132   -0.664394
H       0.474072    2.153547    0.419098
H      -0.749754    1.915172   -0.845060
H      -1.194055    1.720399    0.854527
H       1.077353   -0.759349   -1.760090
H       1.901618    0.580209   -0.923578
H       1.484180   -2.269955    0.180080
H       2.798679   -1.163598    0.647322
H       1.859086   -0.113566    3.116735
H       0.372981    0.944802    2.874290
H      -2.955752   -1.995607   -0.940654
