18

O       0.094249    1.420101    0.343270
C       0.007078    0.050239    0.134216
C      -0.534135   -0.898424    1.178213
C      -1.303393   -0.659952   -0.113830
C      -2.625052    0.087104   -0.109021
C      -3.845425   -0.776683    0.316757
O      -4.493660    0.006106    1.356812
C      -3.683492    1.058422    1.569719
N      -2.645964    1.212268    0.857648
H      -0.768433    1.719064    0.676108
H       0.859665   -0.293086   -0.444562
H      -0.054803   -1.859148    1.334690
H      -0.933690   -0.440615    2.077551
H      -1.283790   -1.462138   -0.848289
H      -2.784577    0.511887   -1.108292
H      -4.572963   -0.944725   -0.479376
H      -3.548259   -1.734469    0.753186
H      -4.002501    1.722599    2.365546
