19

O      -0.047534    1.558617    0.065088
C       0.071022    0.142545    0.081856
C       0.705002   -0.405232   -1.202183
C      -0.091815   -0.018377   -2.427291
O       0.362451    0.529602   -3.397322
C       0.834801   -0.317154    1.321273
C       0.130322   -0.156877    2.683648
C       0.224146   -1.694914    2.750743
O       0.844389   -1.757141    1.444072
H       0.815169    1.931888   -0.149313
H      -0.959087   -0.228843    0.158489
H       1.734424   -0.047298   -1.321757
H       0.730779   -1.500445   -1.124757
H      -1.172545   -0.287476   -2.372255
H       1.859607    0.084907    1.285780
H       0.690780    0.385281    3.445499
H      -0.878928    0.253235    2.622175
H       0.885048   -2.093873    3.529128
H      -0.725190   -2.241926    2.776868
