20

C      -0.180272    1.470937    0.012312
C       0.013201   -0.027222    0.007568
C      -0.748999   -0.870651    1.000285
C       0.755036   -0.770887    1.102002
C       1.565655   -1.868507    0.439154
N       0.761114   -2.888409   -0.280416
C       1.395136   -1.781571   -1.028976
C       0.383142   -0.676700   -1.350204
O      -0.717015   -1.148121   -2.105053
H       0.710413    1.993344   -0.357492
H      -1.022935    1.755685   -0.628519
H      -0.389702    1.841838    1.020839
H      -1.333113   -0.330968    1.739212
H      -1.169268   -1.821491    0.697678
H       1.204527   -0.251296    1.941250
H       2.499575   -2.182173    0.892830
H       1.308168   -3.737245   -0.396903
H       2.181639   -2.012671   -1.740031
H       0.864309    0.084498   -1.974657
H      -0.986568   -1.972651   -1.680385
