16

O       0.191429    1.455477   -0.078342
C       0.044391    0.055814   -0.007508
C       0.823950   -0.533060    1.231288
N       0.099620    0.066919    2.367054
C      -1.106330   -0.285275    2.282137
O      -2.157889    0.638826    2.270765
C      -2.586838   -0.043227    1.050542
C      -1.431215   -0.439316    0.067943
C      -1.771629   -1.249275    1.298954
H      -0.021333    1.801162    0.798918
H       0.474734   -0.332069   -0.938068
H       0.808760   -1.630288    1.196919
H       1.859661   -0.189923    1.235392
H      -3.614637    0.107975    0.749025
H      -1.833031   -0.813444   -0.871613
H      -1.996051   -2.302214    1.392207
