19

C      -0.015206    1.503445   -0.003559
N       0.010430    0.056291    0.114190
C      -1.240926   -0.657829    0.452155
C      -0.419361   -1.629305    1.332796
C       0.711424   -0.573596    1.253773
C       2.113380   -1.077755    0.856320
O       2.066929   -1.718385   -0.392596
C       3.077728    0.049776    0.847542
N       3.807632    0.946106    0.839415
H       1.001376    1.884010   -0.133069
H      -0.601137    1.788623   -0.883077
H      -0.459738    1.992241    0.880958
H      -1.930503   -0.039012    1.046058
H      -1.781872   -1.066073   -0.406993
H      -0.810238   -1.853571    2.324603
H      -0.153985   -2.553020    0.817172
H       0.769644    0.063555    2.147840
H       2.460528   -1.807002    1.597970
H       1.417054   -1.198414   -0.899015
