20

C      -0.072967    1.517981   -0.027746
C       0.073639    0.008068    0.058151
O       0.957743   -0.496652   -0.990787
C       1.926284   -1.243478   -0.237771
C       1.067500   -2.019890    0.794519
C       0.791884   -0.564373    1.299752
C       2.264076   -0.299714    0.919199
C       3.484983   -0.233335    1.735697
N       3.009842    0.939242    0.955276
H       0.873703    2.022392    0.174045
H      -0.422131    1.801154   -1.025427
H      -0.814362    1.864665    0.700674
H      -0.909073   -0.465439   -0.071192
H       2.658885   -1.694775   -0.906164
H       0.222577   -2.585418    0.396287
H       1.654986   -2.615614    1.494132
H       0.377577   -0.339562    2.281055
H       3.426351   -0.112022    2.814257
H       4.369417   -0.763236    1.388940
H       3.557526    1.051121    0.104605
