17

C       0.064330    1.349739   -0.246794
O       0.000065   -0.006584    0.187486
C      -1.245814   -0.533720    0.170458
C      -1.725067   -1.929125    0.061327
C      -2.690662   -1.769995    1.239624
C      -2.591405   -0.237693    0.987697
C      -3.229452   -0.064843   -0.411136
O      -4.090598    0.651172   -0.840860
C      -2.165904   -0.910369   -1.031264
H       1.113416    1.644465   -0.193956
H      -0.296866    1.448491   -1.277968
H      -0.529667    2.003342    0.404412
H      -1.166449   -2.803267   -0.248676
H      -3.687819   -2.215812    1.154549
H      -2.224438   -2.066668    2.182387
H      -2.751582    0.496672    1.771870
H      -1.894164   -1.046487   -2.068846
