16

N      -0.327653    1.155288   -0.143394
C      -0.116681   -0.073274    0.006902
O       0.901345   -0.653947    0.710962
C       0.879748   -2.063761    0.483623
C      -0.542469   -2.311756   -0.044018
C      -1.520663   -2.785225    1.045564
C      -2.883671   -2.947858    0.561176
C      -4.001070   -3.093486    0.146057
O      -0.916414   -1.022754   -0.536865
H       0.407257    1.693952    0.308530
H       1.646599   -2.329836   -0.252133
H       1.089842   -2.575206    1.425964
H      -0.562523   -3.004506   -0.888019
H      -1.149095   -3.740611    1.439662
H      -1.493180   -2.069824    1.877611
H      -4.992644   -3.208801   -0.216112
