20

C      -0.061695    1.540816    0.023036
C      -0.002267    0.034043    0.028948
C       0.942144   -0.801860   -0.912483
C       0.667561   -1.931079    0.120185
C       0.645302   -0.805317    1.192151
C      -0.838219   -2.201154   -0.092662
C      -1.282229   -0.746514   -0.152828
N      -2.425610   -0.222345   -0.313227
O      -3.421163   -1.214789   -0.455357
H       0.933373    1.974254    0.164096
H      -0.468274    1.909964   -0.923802
H      -0.714465    1.907104    0.821662
H       0.629542   -0.954893   -1.949767
H       1.970619   -0.434021   -0.875316
H       1.321343   -2.797737    0.210969
H       1.643765   -0.437813    1.442073
H       0.058076   -0.961554    2.102015
H      -1.065450   -2.738542   -1.018869
H      -1.312512   -2.741495    0.732781
H      -4.217623   -0.685108   -0.566852
