19

C      -0.036600    1.506405    0.058362
C       0.012782   -0.021928   -0.010451
C       0.725168   -0.520708   -1.259104
O       0.725611   -1.938053   -1.243167
C       1.368095   -2.490294   -2.368194
C       1.342157   -3.943210   -2.305391
C       1.341737   -5.150436   -2.290461
C       1.316085   -6.588282   -2.228462
O       1.796003   -7.319345   -3.064285
H       0.969863    1.938982    0.071398
H      -0.567942    1.928608   -0.801683
H      -0.552355    1.840486    0.962828
H       0.527190   -0.427394    0.867956
H      -1.000939   -0.437708    0.000215
H       0.218051   -0.150822   -2.167133
H       1.760986   -0.140493   -1.290994
H       0.881500   -2.163444   -3.304553
H       2.418155   -2.153145   -2.432066
H       0.807348   -6.989762   -1.328593
