19

C       0.076035    1.507891   -0.092097
C      -0.036091   -0.006919    0.052200
C      -1.496702   -0.463175    0.072311
O       0.597096   -0.609973   -1.112994
C       1.345275   -1.707360   -0.784190
O       1.743503   -2.480600   -1.606820
C       1.554888   -1.724581    0.696548
C       2.218227   -0.466449    1.232248
C       0.727891   -0.588571    1.244061
H       1.120440    1.824073   -0.140793
H      -0.426870    1.841972   -1.003775
H      -0.394777    2.002875    0.762790
H      -1.995570   -0.175497   -0.856733
H      -1.560531   -1.550312    0.175733
H      -2.030989   -0.004301    0.910510
H       1.711537   -2.677838    1.181678
H       2.733174   -0.567835    2.180651
H       2.699876    0.201773    0.526568
H       0.202408   -0.671736    2.187794
