22

C      -0.099635    1.530745    0.197543
C       0.046241    0.003364    0.104276
C       0.779630   -0.524805    1.358006
C      -1.345858   -0.641834    0.011280
N       0.748334   -0.291444   -1.154555
C       1.056047   -1.681462   -1.560374
C       2.397368   -1.157031   -2.091505
O       3.274101   -1.601975   -2.767621
C       2.127663    0.186708   -1.400209
H       0.876981    2.020640    0.269834
H      -0.610905    1.919617   -0.687601
H      -0.676266    1.808968    1.084817
H       0.214142   -0.277936    2.261996
H       0.894129   -1.613108    1.333329
H       1.773824   -0.079503    1.464810
H      -1.874050   -0.282465   -0.876394
H      -1.276026   -1.732763   -0.051956
H      -1.942688   -0.398821    0.895535
H       1.208419   -2.402063   -0.740483
H       0.369118   -2.123318   -2.290509
H       2.212052    1.089505   -2.015060
H       2.763268    0.308534   -0.508093
