20

C       0.063487    1.572387    0.097155
C      -0.033316    0.045979    0.049371
C       0.486734   -0.534252   -1.269857
N       0.451253   -1.991104   -1.233966
C      -0.059192   -2.636682   -2.180588
C      -0.159462   -4.144945   -2.287989
O      -1.103029   -4.346247   -3.331414
C      -1.004670   -3.214919   -4.152204
O      -0.636379   -2.120741   -3.316045
H       1.101254    1.908546   -0.008616
H      -0.516112    2.034898   -0.709714
H      -0.316909    1.964372    1.045247
H       0.534429   -0.399122    0.874279
H      -1.075058   -0.268501    0.187494
H      -0.078320   -0.116534   -2.113918
H       1.534544   -0.229926   -1.402035
H       0.820610   -4.580779   -2.535973
H      -0.530182   -4.603469   -1.370403
H      -0.232662   -3.338578   -4.929837
H      -1.977327   -3.011265   -4.607585
