14

C      -0.087906    1.578930   -0.028953
C      -0.001987    0.046819   -0.040564
C      -1.335002   -0.572133    0.047324
N      -2.387142   -1.036853    0.145675
N       0.710166   -0.442968   -1.223076
N       1.647694   -1.382768   -1.155240
C       1.970228   -1.512511   -2.434509
N       1.257352   -0.690641   -3.241086
N       0.457112   -0.017915   -2.456372
H       0.919475    2.000380   -0.044353
H      -0.639542    1.937479   -0.898572
H      -0.599229    1.904434    0.879330
H       0.591192   -0.310370    0.805079
H       2.723134   -2.197053   -2.789116
