19

C      -0.087831    1.500991    0.006299
C       0.032654   -0.000590    0.020151
C       1.370527   -0.682074   -0.204777
C       0.710922   -0.731361    1.155208
O       1.234984    0.064899    2.183472
C       0.064402   -2.014116    1.653459
O      -0.824850   -2.564167    0.693247
C      -1.709873   -1.578321    0.229620
O      -1.074158   -0.633829   -0.589395
H       0.775491    1.963141    0.487614
H      -0.158968    1.861098   -1.024881
H      -0.989236    1.818563    0.540386
H       1.355645   -1.584191   -0.806453
H       2.249128   -0.053676   -0.307551
H       2.116878   -0.262578    2.392215
H       0.809638   -2.787409    1.869089
H      -0.470984   -1.777902    2.586915
H      -2.456785   -2.075902   -0.391915
H      -2.194791   -1.081695    1.089903
