19

C      -0.686968    1.317062    0.248058
C      -0.085641   -0.065698    0.007846
C       0.651974   -0.418051   -1.337336
C       0.974223    0.727890   -2.319977
C       2.345557    1.194776   -1.890418
C       2.891796    0.414991   -0.956013
C       1.977740   -0.710519   -0.543307
C       1.215202   -0.397330    0.764232
O       1.516173   -0.397254    1.922399
H       0.027593    2.113770    0.022594
H      -1.582815    1.476008   -0.360630
H      -0.970951    1.415652    1.300003
H      -0.835743   -0.830082    0.247733
H       0.207431   -1.279643   -1.835532
H       0.985739    0.378167   -3.360839
H       0.230042    1.532467   -2.282533
H       2.824411    2.066673   -2.323437
H       3.865413    0.559357   -0.502242
H       2.438419   -1.702344   -0.589475
