19

C      -0.119312    1.540857   -0.001265
C       0.015393    0.011768   -0.008586
O       0.610589   -0.429291   -1.238958
C       2.029092   -0.573334   -1.262198
C       2.342405   -1.696944   -0.280535
O       3.657964   -1.782214    0.336485
C       3.072623   -1.722831    1.672065
C       1.761589   -1.318704    1.047823
C       0.757034   -0.475904    1.218101
H       0.863028    2.022966    0.014971
H      -0.654940    1.868863   -0.895483
H      -0.675276    1.875272    0.880915
H      -0.993376   -0.421416   -0.037322
H       2.284778   -0.800283   -2.300323
H       2.556656    0.340617   -0.955370
H       2.041661   -2.669086   -0.692603
H       3.093408   -2.707796    2.158818
H       3.569271   -0.989953    2.317984
H       0.502922   -0.030229    2.175610
