20

C       0.138131    1.492013   -0.315300
C       0.004308    0.065513    0.230574
C      -1.420180   -0.456216    0.130737
N      -2.353546    0.296379    0.939558
C      -1.867056   -1.091618   -1.166612
C      -1.627566   -1.975174    0.055456
N      -0.468942   -2.831099    0.022847
C      -2.802703   -2.507155    0.715503
N      -3.721830   -2.950731    1.263806
H       1.171426    1.841545   -0.232885
H      -0.148310    1.543035   -1.371791
H      -0.492969    2.189793    0.243627
H       0.675927   -0.610105   -0.303722
H       0.296676    0.052244    1.286930
H      -2.734472    1.076516    0.414772
H      -3.136300   -0.270386    1.248543
H      -2.893897   -0.949845   -1.483920
H      -1.142652   -1.217050   -1.964135
H      -0.186563   -3.093234    0.962550
H      -0.675606   -3.687844   -0.481763
