27

C      -0.310194    1.516626    0.027292
C      -0.232544    0.007821   -0.238480
C       0.799716   -0.471780   -1.298902
C       0.432270    0.114105   -2.676847
C       2.217939    0.027796   -0.946557
C       0.787092   -2.026598   -1.302147
C       1.427188   -2.698926   -0.092372
C      -0.401941   -2.761610   -1.880590
C       0.930449   -2.809837   -2.589800
H       0.640922    1.919052    0.389304
H      -0.595163    2.084119   -0.863772
H      -1.063005    1.722988    0.795046
H      -0.015337   -0.491007    0.712821
H      -1.222833   -0.351107   -0.544729
H       0.387856    1.205241   -2.625176
H       1.183767   -0.135986   -3.431061
H      -0.541233   -0.234141   -3.035525
H       2.487936   -0.192727    0.090328
H       2.964484   -0.442270   -1.595899
H       2.298946    1.110162   -1.084419
H       0.987382   -2.364866    0.852962
H       1.289020   -3.783198   -0.146355
H       2.504275   -2.511093   -0.043960
H      -0.750102   -3.650922   -1.365334
H      -1.197182   -2.192239   -2.348444
H       1.014349   -2.285156   -3.533121
H       1.499497   -3.733252   -2.552312
