21

C      -0.019624    1.571710    0.086653
C       0.000002    0.032444   -0.048886
N       0.727700   -0.705990    0.977782
C       2.169291   -0.598706    0.967071
C       2.954165    0.604023    1.595750
C       3.999716   -0.419710    2.111486
C       2.940047   -1.539328    1.926226
C      -1.384334   -0.474971   -0.101841
N      -2.479058   -0.842968   -0.131406
H       1.000271    1.960950    0.054717
H      -0.592956    2.026852   -0.726270
H      -0.478182    1.867032    1.035047
H       0.464749   -0.223459   -1.010306
H       0.348565   -0.507656    1.898212
H       2.504842   -0.758357   -0.064718
H       3.297122    1.406042    0.936459
H       2.385981    1.046785    2.421077
H       4.835275   -0.532158    1.415123
H       4.402950   -0.268024    3.114288
H       2.367159   -1.701425    2.845653
H       3.257529   -2.510471    1.540693
