16

O      -0.074498    1.448013    0.099086
C      -0.017106    0.032014   -0.000210
C       0.643158   -0.647507    1.226815
O      -0.057781   -1.865268    1.467357
C      -1.346325   -1.726822    0.922909
C      -2.173653   -0.513394    1.297783
C      -1.408976   -0.568477   -0.014530
O      -2.081358   -0.652346   -1.229095
H       0.803935    1.800383   -0.074411
H       0.476095   -0.269955   -0.934911
H       1.698737   -0.892688    1.078175
H       0.562098    0.036577    2.083795
H      -1.825704   -2.677563    0.725209
H      -3.247926   -0.636882    1.214203
H      -1.843483    0.154422    2.085100
H      -2.400486    0.232172   -1.442286
