23

C      -0.184821    1.474858    0.131249
C       0.003342   -0.029045    0.072235
C      -1.227185   -0.796726   -0.370421
C       1.365440   -0.555741   -0.369534
C       0.943089   -0.692330    1.062271
C       1.586774    0.042546    2.244984
C       1.719790   -1.060712    3.314491
C       0.612352   -2.032101    2.896378
O       0.642986   -2.015141    1.476211
H       0.727875    1.994604    0.437541
H      -0.469604    1.865283   -0.853207
H      -0.979166    1.751175    0.835616
H      -1.500977   -0.534996   -1.399327
H      -1.062314   -1.874236   -0.316534
H      -2.086027   -0.559881    0.269567
H       1.384731   -1.468414   -0.956602
H       2.145683    0.159069   -0.614821
H       2.549588    0.488903    1.984541
H       0.938155    0.848762    2.602382
H       2.692135   -1.556632    3.237629
H       1.604978   -0.687777    4.335185
H       0.773290   -3.063103    3.222113
H      -0.367614   -1.696791    3.274396
