19

C      -0.024425    1.473582    0.007669
C      -0.046138   -0.029806    0.014684
C      -0.900754   -0.818592    0.940713
O      -1.917137   -1.729004    0.567523
C       0.579128   -1.044180    1.016496
C       1.282639   -1.773412   -0.156374
C       0.464128   -2.266468   -1.324139
O      -0.682438   -3.031743   -1.376913
C       0.649035   -0.784374   -1.162485
H       0.981637    1.853175   -0.204327
H      -0.694524    1.867766   -0.766808
H      -0.344073    1.885684    0.969638
H      -1.231182   -0.193530    1.772338
H      -1.969608   -2.403098    1.255935
H       1.114958   -0.836596    1.936537
H       2.333118   -2.023426   -0.059936
H       1.147226   -2.623571   -2.094845
H      -1.338524   -2.621596   -0.787674
H       1.159504   -0.187413   -1.910775
