15

N      -2.330567    1.239017    0.065006
C      -2.520339   -0.113003    0.145027
O      -3.577324   -0.656369    0.345323
O      -1.313524   -0.728401   -0.011711
C      -1.200259   -2.099794    0.097483
C       0.018002   -2.683832    0.356702
N      -0.185767   -4.042025    0.340575
C      -1.501438   -4.315416    0.080602
C      -2.170843   -3.123384   -0.081160
H      -3.159963    1.793313   -0.058935
H      -1.467372    1.586262   -0.316573
H       0.984914   -2.246145    0.536116
H       0.527618   -4.728942    0.504606
H      -1.861337   -5.330433    0.036646
H      -3.218102   -2.988797   -0.278647
