23

C      -0.055813    1.639055   -0.054702
C       0.060804    0.114639    0.050811
C      -1.296201   -0.579520   -0.014278
C      -2.086329   -0.628283   -1.349510
C      -2.582252   -2.045984   -0.963099
C      -2.769331   -3.107957   -2.038554
C      -1.399150   -2.148664    0.072194
C      -0.189138   -2.868791   -0.452276
O       0.394367   -3.743194    0.140117
H       0.927376    2.116648   -0.006915
H      -0.525166    1.937363   -0.998366
H      -0.664601    2.045504    0.760704
H       0.710939   -0.254964   -0.751993
H       0.556842   -0.152945    0.992827
H      -1.942508   -0.169262    0.770648
H      -2.838848    0.142550   -1.533285
H      -1.410503   -0.662020   -2.212208
H      -3.506857   -1.955425   -0.383062
H      -1.885341   -3.209013   -2.676213
H      -2.976474   -4.088891   -1.597268
H      -3.613473   -2.850364   -2.687592
H      -1.639080   -2.570480    1.050691
H       0.162113   -2.546331   -1.459401
