21

C      -0.057948    1.457743   -0.165150
C       1.389529    1.564570    0.403408
C       1.316247    0.067406    0.673336
C       1.839807   -0.701988    1.619292
C       1.453425   -2.119499    1.938480
C       0.329408   -2.708081    1.073541
C      -0.904180   -1.799192    0.936927
O      -0.874036   -0.975985   -0.218396
C       0.192936   -0.070784   -0.344545
H      -0.805014    1.635085    0.612417
H      -0.309761    2.032965   -1.058169
H       2.116856    1.826950   -0.372743
H       1.550548    2.215701    1.265309
H       2.582681   -0.257219    2.281526
H       2.339216   -2.768979    1.892751
H       1.138241   -2.149275    2.993192
H       0.690291   -2.931280    0.062865
H       0.022839   -3.665331    1.511030
H      -1.806369   -2.404721    0.808404
H      -1.039748   -1.200276    1.851305
H       0.629962   -0.228614   -1.342697
