18

C      -0.357884   -0.961865   -0.813020
C      -0.189347    0.132852   -0.343554
C       0.012883    1.461553    0.209401
C      -0.285365    1.601335    1.734241
C       0.668801    2.693168    2.161621
C       1.601864    2.932073    1.241233
C       1.437407    2.050111    0.054715
C       2.566727    1.307364   -0.567990
N       1.961312    2.466172   -1.252166
H      -0.513283   -1.930650   -1.219268
H      -0.658800    2.158226   -0.312169
H      -1.337238    1.839911    1.920192
H      -0.075487    0.661802    2.261131
H       0.599504    3.177817    3.128542
H       2.418129    3.640481    1.313449
H       3.579952    1.467315   -0.209000
H       2.360889    0.310349   -0.946242
H       1.339194    2.135109   -1.987783
