24

C      -0.080977    1.635255    0.018105
C       0.031208    0.106782   -0.009581
C      -1.347702   -0.564629    0.019704
C      -1.370920   -2.112389    0.004823
C      -0.696037   -2.661643   -1.272138
C      -0.672512   -2.684922    1.256798
C      -2.860586   -2.544454   -0.003637
N      -3.093099   -3.889253    0.090174
O      -3.782059   -1.754343   -0.082439
H       0.905739    2.108498   -0.005363
H      -0.650301    2.005079   -0.841702
H      -0.594806    1.977428    0.923172
H       0.583266   -0.192316   -0.908780
H       0.636749   -0.220210    0.844487
H      -1.892823   -0.225463    0.908087
H      -1.939963   -0.209236   -0.829955
H       0.363690   -2.392632   -1.296540
H      -0.753092   -3.753383   -1.328615
H      -1.169426   -2.257210   -2.172588
H      -1.149469   -2.325349    2.174118
H      -0.693305   -3.778859    1.279876
H       0.378917   -2.384922    1.282180
H      -2.360608   -4.574601    0.058318
H      -4.046617   -4.200778    0.005589
