25

C      -0.239795    1.577429   -0.043842
C       0.006215    0.059836   -0.012885
C       0.745225   -0.428910   -1.276676
C       2.225629   -0.017811   -1.292629
C       2.951908   -0.509656   -0.036493
O       4.293611   -0.039215    0.028099
C       2.242429   -0.026447    1.226369
C       0.759308   -0.437391    1.249437
C       0.085947   -0.025413    2.563436
H       0.688764    2.155293   -0.009647
H      -0.764861    1.857346   -0.963459
H      -0.859067    1.901131    0.797342
H      -0.981497   -0.421311   -0.005677
H       0.681362   -1.524547   -1.321983
H       0.241199   -0.053948   -2.174966
H       2.716318   -0.420410   -2.188987
H       2.327903    1.073011   -1.342565
H       2.941582   -1.614673   -0.038478
H       4.739796   -0.307464   -0.781624
H       2.759826   -0.428515    2.104681
H       2.342006    1.065093    1.281850
H       0.730140   -1.536764    1.202761
H       0.157915    1.053522    2.735552
H      -0.976004   -0.295096    2.568849
H       0.561487   -0.523324    3.414985
