23

C      -1.353819   -0.417463   -0.437014
C       0.097295   -0.056302   -0.093574
C       0.528181   -0.445069    1.313828
C       1.968127   -0.861705    1.511195
C       0.869578   -1.897406    1.572630
C       0.520624   -2.561409    2.892640
C       0.208676   -1.584905    3.993538
C      -0.066874   -0.297871    3.790884
C      -0.116106    0.358934    2.438296
H      -2.069742    0.096238    0.212504
H      -1.591107   -0.138983   -1.468646
H      -1.525501   -1.493921   -0.331637
H       0.763521   -0.548806   -0.812535
H       0.249564    1.023365   -0.231817
H       2.626530   -0.858970    0.648488
H       2.450080   -0.588140    2.444697
H       0.800050   -2.558029    0.711790
H      -0.346938   -3.223110    2.748603
H       1.338773   -3.225173    3.207223
H       0.199199   -1.981635    5.005922
H      -0.299468    0.339603    4.640875
H       0.353232    1.352502    2.491600
H      -1.169514    0.556633    2.191311
