25

C       0.049213    1.491141   -0.176882
C       0.015547   -0.030522    0.068400
C       0.724803   -0.399403    1.386583
C      -1.357679   -0.538997    0.046787
C      -2.492829   -0.945617    0.045186
C      -3.874520   -1.445319    0.036927
C      -3.863453   -2.983754   -0.111229
C      -4.568677   -1.058909    1.362637
C      -4.640598   -0.817465   -1.149589
H       1.083235    1.850432   -0.202260
H      -0.429522    1.747099   -1.125749
H      -0.478782    2.021124    0.622086
H       0.566832   -0.511970   -0.751946
H       0.724464   -1.481227    1.543766
H       1.762970   -0.051687    1.371146
H       0.219486    0.066286    2.238518
H      -3.325128   -3.451795    0.717873
H      -4.888403   -3.370766   -0.118860
H      -3.375924   -3.282551   -1.043583
H      -4.588374    0.027126    1.490771
H      -5.601057   -1.425596    1.370333
H      -4.043425   -1.491776    2.218796
H      -4.167084   -1.076683   -2.100818
H      -5.673786   -1.181503   -1.168436
H      -4.661492    0.272989   -1.067417
