22

C       0.141912    0.150831    1.885375
C      -0.588020   -1.190903    1.728545
C      -1.823380   -1.107639    0.844276
C      -2.890747   -0.105888    1.292695
O      -2.743094    1.176142    0.692109
N      -1.570079   -1.150877   -0.609372
C      -2.305527   -2.261641    0.023818
C      -1.641067   -3.614779   -0.095536
O      -1.663940   -4.061575   -1.441596
H       1.068302    0.027212    2.453931
H       0.404297    0.564072    0.905790
H      -0.462324    0.888309    2.427667
H       0.108743   -1.916669    1.303189
H      -0.879498   -1.570293    2.716774
H      -3.883943   -0.445218    0.984574
H      -2.894976   -0.034705    2.390674
H      -1.891131    1.535701    0.958221
H      -2.201565   -0.503046   -1.075784
H      -3.379978   -2.298067   -0.153836
H      -0.613637   -3.581547    0.290842
H      -2.191871   -4.360884    0.487220
H      -1.252221   -3.357485   -1.957148
