16

N      -0.096554    1.435816    0.094751
C       0.061148   -0.017791   -0.021975
C       0.789509   -0.420325   -1.247601
N       1.349301   -0.698714   -2.220147
C       0.759362   -0.550472    1.229815
O       1.904901    0.177181    1.569203
C      -0.066879   -1.142598    2.339949
C       0.820247   -2.022197    1.478093
H       0.809162    1.872583   -0.053062
H      -0.702025    1.780668   -0.643807
H      -0.936880   -0.465032   -0.076338
H       1.605262    0.993109    1.987515
H       0.267264   -0.941946    3.351655
H      -1.142928   -1.205772    2.219544
H       0.355186   -2.688653    0.759682
H       1.737124   -2.395488    1.918030
