18

C       0.075138    1.495325    0.073670
C      -0.020882    0.008119    0.026748
C      -1.087856   -0.795345    0.070343
C      -0.657410   -2.228126   -0.021919
C      -1.155456   -2.983871   -1.257468
O      -0.628908   -4.291052   -1.310185
O       0.782227   -2.158547   -0.092971
C       1.181063   -0.843379   -0.078544
N       2.378804   -0.438681   -0.141287
H       0.680743    1.811817    0.929195
H       0.584662    1.873152   -0.818673
H      -0.910849    1.960177    0.144459
H      -2.125323   -0.497060    0.151183
H      -0.916861   -2.811433    0.872311
H      -2.245625   -3.080010   -1.212453
H      -0.901581   -2.397663   -2.154371
H       0.330785   -4.201975   -1.282930
H       3.027775   -1.223598   -0.208304
