18

C      -0.067896    1.500032    0.047023
C      -0.023808    0.010328   -0.002126
C      -0.048533   -0.808963   -1.071452
C       0.063720   -2.242128   -0.602265
C       1.467630   -2.424951    0.044198
N       1.445834   -1.502707    1.227905
C       0.083514   -0.877436    1.219663
C      -0.765614   -2.060455    0.702532
O      -1.703634   -2.652326    1.145529
H       0.847598    1.903383    0.496896
H      -0.175807    1.929230   -0.953199
H      -0.904728    1.852932    0.662369
H      -0.114055   -0.509984   -2.110689
H      -0.250666   -3.027516   -1.285588
H       1.624826   -3.465036    0.351318
H       2.271035   -2.143281   -0.643366
H       1.534679   -2.052395    2.077773
H      -0.172179   -0.442604    2.184198
