23

C      -0.072569    1.547573    0.122736
C      -0.044054    0.019137    0.037512
C      -1.444337   -0.601491    0.008412
C      -1.416110   -2.120490   -0.083515
O      -2.745348   -2.599906   -0.093057
C      -2.832716   -4.001480   -0.194643
C      -4.284475   -4.393159   -0.189674
C      -4.711611   -5.730354    0.235661
O      -4.898659   -4.598416    1.083483
H       0.938843    1.965050    0.144423
H      -0.594561    1.981712   -0.737102
H      -0.591745    1.883337    1.027127
H       0.510116   -0.286389   -0.860036
H       0.516283   -0.384097    0.891448
H      -2.001342   -0.317421    0.909538
H      -2.012048   -0.209924   -0.844721
H      -0.888111   -2.441898   -0.999018
H      -0.863143   -2.548005    0.771066
H      -2.357945   -4.352692   -1.128897
H      -2.320260   -4.496726    0.646559
H      -4.903550   -3.848758   -0.903249
H      -5.618436   -6.164592   -0.182697
H      -3.969045   -6.451877    0.575868
