20

N      -0.113981   -1.115854   -0.082731
C      -0.065604    0.038595   -0.079047
C       0.021341    1.495994   -0.072087
C       1.476877    1.995982   -0.028438
N       1.494038    3.448591    0.003029
C       2.826299    4.020278    0.179826
C       2.767813    5.526397    0.129134
C       3.949802    6.312555   -0.291751
N       2.768843    6.226678   -1.171318
H      -0.482160    1.878731   -0.968272
H      -0.523766    1.890955    0.791142
H       1.952912    1.625884    0.886662
H       2.038882    1.559444   -0.873197
H       1.083110    3.819585   -0.849194
H       3.203644    3.695957    1.159070
H       3.557264    3.661782   -0.572201
H       2.081319    5.967374    0.848368
H       4.131427    7.293048    0.138131
H       4.848574    5.770047   -0.574803
H       2.961209    5.561454   -1.918478
