10

F       0.027600    0.017508    0.003200
C      -0.027261    1.337171    0.010854
C      -1.191823    2.015341    0.030467
F      -2.364364    1.422129    0.043447
C      -1.185358    3.475897    0.038125
O      -2.150905    4.181420    0.054577
O       0.081776    4.059268    0.023434
N       1.273184    3.362866    0.003365
C       1.199754    2.076178   -0.002222
H       2.147731    1.548512   -0.018062
