19

O       0.198081    1.410210   -0.119653
C       0.022487    0.027515   -0.049630
C       0.441186   -0.773817    1.223104
C      -0.834650   -1.667729    1.017798
C      -1.838077   -1.744044    2.130739
C      -2.778929   -0.802590    2.017419
C      -2.499814    0.144086    0.871383
O      -2.102611    1.438511    1.393786
C      -1.405057   -0.595373    0.043455
H      -0.510968    1.797499    0.414706
H       0.533689   -0.399506   -0.919702
H       1.416254   -1.265445    1.203648
H       0.369279   -0.167615    2.130931
H      -0.603453   -2.636188    0.568501
H      -1.784452   -2.475760    2.930641
H      -3.604093   -0.639336    2.702409
H      -3.378568    0.365418    0.258935
H      -1.731950    1.287403    2.270841
H      -1.832705   -0.948602   -0.897236
