18

C      -0.061785    1.548844   -0.009479
C       0.053913    0.027464    0.020948
C       0.662540   -0.534980   -1.266333
C       0.930594   -2.018312   -1.167045
N       0.819012   -2.767139   -2.190823
N       1.324750   -2.430183    0.102777
C       1.386799   -1.660629    1.269465
O       1.841181   -2.115364    2.299603
N       0.910525   -0.383038    1.131766
H       0.922304    2.008472   -0.144468
H      -0.710843    1.864464   -0.831020
H      -0.494301    1.928769    0.922256
H      -0.955198   -0.398712    0.144244
H       0.012473   -0.362436   -2.124703
H       1.616284   -0.025295   -1.455661
H       1.061924   -3.737429   -1.977621
H       1.639806   -3.380334    0.236408
H       0.815589    0.096728    2.014289
