12

C      -0.026362    1.383509    0.010387
C       1.170802    2.096581    0.002305
C       2.386892    1.416375   -0.013138
C       2.405730    0.023098   -0.020512
C       1.208561   -0.689973   -0.012406
C      -0.007525   -0.009772    0.003045
H      -0.973341    1.913233    0.022450
H       1.156044    3.181608    0.008022
H       3.319139    1.971727   -0.019457
H       3.352711   -0.506622   -0.032511
H       1.223326   -1.775000   -0.018146
H      -0.939776   -0.565118    0.009327
