20

C      -0.048199    1.572926   -0.014797
C       0.029527    0.048666   -0.039169
C       0.741564   -0.531535   -1.263627
C       0.592830   -2.029477   -1.484632
C       1.809239   -1.480115   -0.791530
O       3.048335   -1.503706   -1.435093
C       1.768735   -1.442521    0.714495
C       2.131293   -0.132313    1.303471
N       0.716324   -0.510292    1.165596
H       0.937804    2.034768   -0.125164
H      -0.680310    1.932998   -0.832508
H      -0.482122    1.914999    0.929168
H      -0.995690   -0.340200    0.009633
H       0.921405    0.091695   -2.132161
H      -0.153373   -2.568772   -0.907657
H       0.739238   -2.383906   -2.499317
H       3.363218   -2.413968   -1.442772
H       1.878248   -2.365787    1.279677
H       2.480147   -0.069766    2.329809
H       2.555563    0.608038    0.630350
