19

C       0.046388    1.339840    0.271832
N      -0.212415   -0.038373   -0.145552
C       0.569176   -0.543846   -1.261321
C       0.370636    0.273966   -2.580659
O       1.742135    0.840648   -2.443977
C       1.992254   -0.105364   -1.487602
N       2.982004   -0.816231   -1.161890
C       2.318952   -2.004871   -0.530334
C       0.857887   -2.049234   -1.123342
H       1.097025    1.541184    0.535297
H      -0.235691    2.038397   -0.520983
H      -0.578096    1.564023    1.140674
H      -0.085717   -0.654097    0.648826
H       0.307828   -0.310333   -3.501589
H      -0.384001    1.060439   -2.553571
H       2.890903   -2.897741   -0.793859
H       2.320629   -1.929838    0.565060
H       0.134341   -2.580501   -0.497907
H       0.887075   -2.538672   -2.101188
