19

C       0.037531    1.438689   -0.102219
N      -0.003130   -0.013975   -0.070422
C       0.492217   -0.628028    0.927168
C       0.494557   -2.137503    0.974238
C       0.328356   -2.663545    2.403419
C       1.431949   -2.090615    3.298050
C       1.545662   -0.578654    3.209574
O       2.014712    0.114153    4.085799
N       1.079364   -0.002067    2.033516
H       1.065761    1.833151   -0.096542
H      -0.440083    1.790097   -1.019660
H      -0.499458    1.895786    0.743535
H      -0.290100   -2.487990    0.302531
H       1.451461   -2.494021    0.567778
H      -0.654851   -2.374648    2.793562
H       0.364742   -3.756669    2.412199
H       1.296031   -2.339273    4.352830
H       2.406717   -2.501688    3.002088
H       1.152223    1.006273    2.030177
