15

N       0.005199   -1.144223   -0.040334
C      -0.017252    0.009540   -0.003496
C      -0.016195    1.484083   -0.010288
O      -0.741694    1.909639    1.125465
C      -0.561282    3.294599    1.403233
C       0.888437    3.594519    1.782379
C       1.815876    2.960666    0.781166
C       1.405571    2.010482   -0.052665
H      -0.541576    1.795162   -0.933276
H      -0.853202    3.896058    0.527800
H      -1.252065    3.521773    2.218274
H       1.045659    4.679550    1.815948
H       1.104843    3.218517    2.791014
H       2.844280    3.308575    0.741969
H       2.058158    1.569350   -0.798753
