13

N      -0.019084   -1.154287   -0.004175
C      -0.013015    0.000620    0.002107
C       0.000810    1.463805    0.009917
C       1.421249    2.000962   -0.000770
N       2.006320    2.205879    1.180243
C       3.255236    2.666159    1.103158
N       3.924860    2.925628   -0.019734
C       3.231070    2.685780   -1.132232
N       1.980655    2.226672   -1.190378
H      -0.527753    1.827684   -0.875235
H      -0.510652    1.817840    0.909028
H       3.771635    2.848106    2.042726
H       3.727061    2.884254   -2.079418
