16

C      -0.042509    1.541584    0.921734
C      -0.080405    0.316335   -0.032001
C       1.097531   -0.573583    0.319048
O       1.040646   -1.692355    0.767391
C      -1.417593   -0.361985   -0.035982
C      -2.644052    0.033883   -0.526703
N      -3.564245   -0.930907   -0.256357
N      -2.978679   -1.908945    0.376716
N      -1.687082   -1.569957    0.518133
H       0.936546    2.030492    0.893346
H      -0.798264    2.269592    0.620709
H      -0.251402    1.234610    1.950003
H       0.126622    0.695013   -1.043382
H       2.081200   -0.081780    0.156174
H      -2.910165    0.938283   -1.050552
H      -1.014290   -2.195814    0.936873
