21

C      -0.196468    1.494477   -0.099279
C      -0.060374    0.010757    0.005296
C      -0.071900   -1.102174   -1.019324
C       1.256803   -1.660513   -0.519200
C       0.934692   -0.932425    0.814537
C      -0.301447   -1.689326    1.365812
C      -1.062028   -1.118387    0.165565
C      -2.543221   -1.091003   -0.054053
O      -3.077322   -2.328553   -0.517297
H       0.714009    1.952170   -0.504144
H      -1.022615    1.765640   -0.765689
H      -0.392196    1.955906    0.875993
H      -0.448346   -1.063569   -2.034387
H       1.397694   -2.747345   -0.478189
H       2.102957   -1.202372   -1.039471
H       1.730686   -0.604337    1.480829
H      -0.209720   -2.777404    1.479614
H      -0.665398   -1.254710    2.302543
H      -3.052540   -0.768423    0.869149
H      -2.794265   -0.358687   -0.829935
H      -2.829946   -3.006109    0.119876
