16

C      -0.148794    1.487937   -0.244785
C       0.138923    0.028382    0.045546
O       0.651874   -0.565729   -1.169213
C       0.977936   -1.864219   -1.092021
O       0.861041   -2.541427   -0.100140
C       1.508479   -2.383370   -2.413802
C       0.921097   -3.747296   -2.754426
O       0.656531   -4.092903   -3.874464
H       0.760487    2.012660   -0.550825
H      -0.890476    1.589688   -1.041836
H      -0.540383    1.972611    0.654337
H       0.882760   -0.096831    0.838222
H      -0.759511   -0.517476    0.349013
H       1.353215   -1.683352   -3.234720
H       2.590276   -2.531453   -2.285528
H       0.768108   -4.406743   -1.875902
