21

C      -0.059786    1.633824    0.265126
C      -0.092469    0.110782    0.302182
O       0.079403   -0.277947    1.654731
C      -1.411949   -0.453399   -0.264415
C      -1.375888   -1.943384   -0.433312
C      -0.914430   -2.781742   -1.642412
C      -1.870375   -3.927833   -1.155875
C      -2.259309   -3.032919    0.026224
O      -1.044160   -2.738838    0.734144
H       0.857007    1.996610    0.737411
H      -0.092330    2.003796   -0.764316
H      -0.911300    2.047038    0.815549
H       0.740351   -0.274156   -0.313686
H      -0.164824   -1.209916    1.722710
H      -2.219243   -0.173249    0.422455
H      -1.628814    0.004480   -1.236611
H      -1.224320   -2.357465   -2.600534
H       0.153930   -3.006816   -1.670599
H      -2.695782   -4.106827   -1.848723
H      -1.407839   -4.878846   -0.883170
H      -3.178307   -3.007592    0.601625
