14

N       0.001096    1.344557    0.104469
C       0.006863   -0.011209    0.038044
N      -1.183836   -0.626412    0.030462
C      -1.150643   -1.958850    0.006809
C      -2.456853   -2.698349   -0.004790
O      -3.542067   -2.181359   -0.002752
C       0.037461   -2.684405   -0.012245
C       1.212919   -1.932942   -0.015852
N       1.220426   -0.608035    0.007371
H       0.863326    1.830780   -0.068450
H      -0.872571    1.819184   -0.043636
H      -2.336212   -3.805268   -0.016795
H       0.047691   -3.767048   -0.032112
H       2.186298   -2.418694   -0.040922
