16

C       0.016070    1.552049   -0.042910
C      -0.017609    0.057968    0.040202
C      -1.109956   -0.755437    0.063624
N      -2.423288   -0.403556    0.108880
C      -0.707104   -2.205507    0.046359
O      -0.012469   -2.571271   -1.158688
C       0.751369   -2.227494    0.016240
C       1.200168   -0.760871    0.039178
O       2.352901   -0.381650    0.059226
H       1.053825    1.877374   -0.153628
H      -0.553687    1.936542   -0.899219
H      -0.387396    2.027753    0.859819
H      -2.668665    0.556292   -0.077269
H      -3.113246   -1.082185   -0.170431
H      -1.325624   -2.973500    0.502100
H       1.371047   -3.012526    0.436947
