18

C      -0.078850    1.322268   -0.313912
C      -0.022800   -0.040003    0.290064
C      -1.060378   -0.908879    0.361548
C      -1.622578   -1.537068   -0.908337
C      -0.374832   -2.326311   -1.329413
C       0.669131   -2.242894   -0.160048
C       1.265435   -0.869831    0.302022
C      -0.607488   -2.346886    0.681321
N      -1.448485   -2.935971   -0.460036
H       0.555387    1.385331   -1.208965
H      -1.103127    1.597184   -0.582216
H       0.296152    2.085989    0.380781
H      -2.394689   -1.245704   -1.612437
H      -0.208836   -2.683920   -2.340346
H       1.360682   -3.090028   -0.170771
H       1.998273   -0.417079   -0.376075
H       1.772591   -1.004514    1.267708
H      -0.671326   -2.785716    1.675768
