22

C       0.093125    1.527257    0.196510
C      -0.002387    0.014459    0.027018
C      -1.430722   -0.406617   -0.327727
C       1.054909   -0.636818   -0.924488
C       1.299770   -1.740997    0.137636
C       2.751779   -2.164296    0.389530
C       2.877634   -3.103436    1.503639
N       2.952458   -3.844750    2.387151
C       0.593054   -0.846010    1.189673
H       1.112303    1.836294    0.452134
H      -0.193460    2.047455   -0.725121
H      -0.571823    1.877966    0.994549
H      -1.755608    0.062758   -1.263327
H      -1.516009   -1.491222   -0.452541
H      -2.132424   -0.107115    0.458903
H       0.711297   -0.957422   -1.911872
H       1.933222    0.004902   -1.054263
H       0.705727   -2.633253   -0.078085
H       3.174058   -2.631832   -0.508352
H       3.368793   -1.283763    0.606422
H       1.313340   -0.277582    1.787563
H      -0.112533   -1.330998    1.868620
