15

C       0.015570    1.477183   -0.092337
C      -0.011172    0.001799    0.161627
N      -0.075029   -0.511620    1.310325
O       0.052661   -0.670663   -1.057316
C      -0.049007   -2.030306   -1.056913
C       0.933979   -2.939013   -1.298281
O       0.413945   -4.173070   -1.308549
N      -0.954365   -4.101624   -1.059190
C      -1.220499   -2.828570   -0.912922
H       0.924262    1.749240   -0.638080
H      -0.835627    1.769460   -0.714892
H      -0.019420    2.010007    0.856401
H      -0.069485   -1.532264    1.285887
H       1.991966   -2.852028   -1.485670
H      -2.233249   -2.509963   -0.712422
