18

N      -0.009463   -1.177381    0.130058
C      -0.032509   -0.020010    0.066499
C      -0.014225    1.403282   -0.015566
C      -1.160124    2.105861    0.059752
C      -1.199275    3.576739    0.004606
C      -0.338810    4.384150    0.978955
C       0.060995    4.288402   -0.460217
C       1.215087    3.422464   -0.928563
C       1.332941    2.084078   -0.173986
H      -2.102494    1.577092    0.164378
H      -2.157866    4.010493   -0.256905
H      -0.750084    5.321216    1.337352
H       0.215751    3.826118    1.724732
H      -0.102774    5.179275   -1.059320
H       1.071170    3.213098   -1.995616
H       2.160868    3.968229   -0.840117
H       1.777590    2.244953    0.816069
H       2.022780    1.421211   -0.704190
