13

C      -0.018450    1.501978    0.059236
C      -0.002641    0.012458   -0.045788
C      -0.059281   -0.821332   -1.141139
C      -0.008461   -2.166089   -0.674516
C       0.077887   -2.118773    0.695431
N       0.081228   -0.795041    1.065377
H       0.894592    1.896752    0.523177
H      -0.096840    1.942524   -0.937283
H      -0.867952    1.868860    0.649490
H      -0.129902   -0.495157   -2.168088
H      -0.032971   -3.061507   -1.276324
H       0.136796   -2.901988    1.433989
H       0.136621   -0.461532    2.011884
