15

C      -0.262953    1.571361   -0.047445
C       0.010467    0.072436   -0.003469
O      -1.176443   -0.681165   -0.156919
C       1.216778   -0.380241   -0.904450
C       2.031155   -0.569217    0.383139
O       3.196560   -0.713584    0.613658
C       0.785656   -0.401398    1.261877
H       0.650457    2.149551    0.125251
H      -0.657323    1.865530   -1.027962
H      -0.996808    1.845919    0.716134
H      -1.626038   -0.377247   -0.953005
H       1.009699   -1.339289   -1.390243
H       1.616618    0.322643   -1.640207
H       0.862458    0.283373    2.109779
H       0.406999   -1.367269    1.611331
