18

C       0.026952    1.553195    0.116752
C       1.349228    0.845220   -0.096349
C       0.043211    0.044304    0.054747
C       0.106804   -0.588080   -1.328408
C      -0.668981   -1.175380   -2.503819
O       0.152683   -0.373289   -3.407868
C       0.565958    0.495432   -2.322188
C       1.861545    0.339501   -1.505893
N       1.546610   -1.118398   -1.431492
H      -0.106497    1.979134    1.107687
H      -0.452086    2.136728   -0.658815
H       2.084039    0.878807    0.700717
H      -0.172767   -0.545961    0.938265
H      -0.550655   -2.246727   -2.682678
H      -1.724537   -0.880760   -2.565461
H       0.132087    1.486249   -2.441504
H       2.866775    0.647778   -1.801071
H       1.846131   -1.511476   -0.538161
