21

C       0.009144    1.530187   -0.042884
C      -0.003569    0.033461    0.019056
C       0.468062   -1.034206   -0.960014
C       1.241198   -1.760716    0.138819
C       0.485794   -0.883223    1.188722
C      -0.769684   -1.599423    1.700806
C      -1.618593   -1.847727    0.421210
O      -2.990021   -1.493720    0.575971
C      -1.006119   -0.898729   -0.599603
H       1.012555    1.935936    0.132507
H      -0.323999    1.883650   -1.024513
H      -0.661309    1.966611    0.707368
H       0.788664   -0.914743   -1.989509
H       1.134995   -2.849045    0.225716
H       2.306021   -1.515561    0.099485
H       1.101679   -0.432809    1.967944
H      -0.538710   -2.518572    2.250720
H      -1.347085   -0.939358    2.358564
H      -1.545008   -2.894422    0.089518
H      -3.380160   -2.100835    1.212490
H      -1.653428   -0.533667   -1.389375
