23

C      -0.010221    1.572989    0.046566
C       0.007315    0.047482    0.008460
C       0.715906   -0.564181   -1.244218
C       2.011238   -0.678899   -0.388924
C       1.129025   -0.599780    0.885368
O       0.776060   -1.833690    1.484302
C       0.657107   -2.977752    0.651574
C      -0.314262   -2.841844   -0.527469
C       0.152383   -1.925461   -1.677616
H       0.982367    1.997393   -0.142041
H      -0.688465    1.976190   -0.713353
H      -0.346045    1.938684    1.023116
H      -0.994488   -0.335073    0.222629
H       0.787184    0.096738   -2.114166
H       2.646447   -1.557356   -0.523756
H       2.640718    0.209793   -0.476243
H       1.503423    0.016578    1.708251
H       1.645074   -3.297349    0.284396
H       0.300143   -3.763655    1.324800
H      -0.487476   -3.847352   -0.930587
H      -1.279543   -2.500010   -0.136864
H      -0.695457   -1.768687   -2.355800
H       0.921262   -2.445067   -2.265296
