19

C      -0.258944    1.589950    0.265601
C      -0.047258    0.116743    0.096003
C       0.097662   -0.581892   -1.067981
C       0.117175   -0.202021   -2.507147
C       1.495239   -0.368130   -3.154850
O       1.372113    0.015413   -4.515212
O       0.271929   -1.914388   -0.796254
C       0.234169   -2.058355    0.553816
C       0.041498   -0.858032    1.152125
H       0.556938    2.049990    0.835237
H      -0.317298    2.102952   -0.697899
H      -1.186883    1.800625    0.809624
H      -0.600456   -0.808767   -3.072578
H      -0.195739    0.840757   -2.611789
H       2.227973    0.258103   -2.622009
H       1.820173   -1.414390   -3.056340
H       2.223569   -0.113886   -4.942598
H       0.355207   -3.064001    0.921748
H      -0.033406   -0.672285    2.212877
