16

C      -0.018091    1.461834    0.099729
C       1.304058    0.746331    0.052313
C       2.007472    0.419509    1.378100
N       1.034472   -0.459078    2.007912
N       0.987274   -1.066884    3.211565
C      -0.156611   -1.738118    3.110041
N      -0.840633   -1.586994    1.934478
C      -0.048939   -0.766234    1.268968
C      -0.003012   -0.049925   -0.021624
H      -0.353613    1.892892    1.037694
H      -0.304562    2.023565   -0.782563
H       1.925999    0.862329   -0.825807
H       2.956944   -0.103309    1.222323
H       2.196050    1.302830    1.995704
H      -0.513207   -2.362097    3.916278
H      -0.347383   -0.529459   -0.928003
