19

C       0.109837    1.650056   -0.246593
O       0.426146    0.297668    0.050451
C       0.706896   -0.489797   -1.069544
C       1.361929   -1.834186   -0.700250
C       0.838325   -2.433653    0.601666
O       1.083814   -2.664878   -1.841498
C      -0.221045   -2.381157   -2.316631
C      -0.530591   -0.958154   -1.861168
O      -1.548277   -0.343866   -2.045649
H       0.934673    2.135991   -0.790554
H      -0.806462    1.729071   -0.838793
H      -0.027361    2.155382    0.711839
H       1.365231    0.041382   -1.780889
H       2.450556   -1.748642   -0.657151
H      -0.252204   -2.530498    0.595306
H       1.273457   -3.425470    0.749213
H       1.108059   -1.793809    1.445075
H      -0.238022   -2.467885   -3.408243
H      -0.980408   -3.067872   -1.911902
