16

N       0.035592   -1.107770    0.054210
C       0.018435    0.048980    0.023514
C      -0.017883    1.484344   -0.005340
C       0.473560    2.190410   -1.265232
C       1.319580    2.233144   -0.030423
O       1.429105    3.438154    0.662761
C       0.420032    3.641256    1.626039
O      -0.862175    3.484226    1.082879
C      -1.137403    2.118971    0.823021
H       0.790292    1.572729   -2.096838
H      -0.043227    3.108520   -1.520391
H       2.229247    1.641058    0.001754
H       0.555879    2.948024    2.474280
H       0.516339    4.676385    1.955365
H      -2.091087    2.084032    0.290578
H      -1.242883    1.564038    1.767171
