21

C      -0.357953    1.404313    0.062060
C       1.121905    1.109226   -0.041063
C       0.127703   -0.019652   -0.028415
C       0.098501   -0.928738    1.202248
O      -0.806985   -2.022778    1.065803
C      -0.934944   -2.493755   -0.270630
C       0.356649   -2.272088   -1.108273
C      -0.169462   -0.814944   -1.291550
C      -1.603902   -1.408307   -1.154035
H      -0.741750    1.758859    1.013394
H      -0.853351    1.832735   -0.803784
H       1.627769    1.337727   -0.973739
H       1.734204    1.262572    0.842867
H       1.111008   -1.319759    1.384984
H      -0.204952   -0.381246    2.100228
H      -1.376363   -3.489927   -0.204866
H       1.327890   -2.435564   -0.635672
H       0.309637   -2.836832   -2.042333
H       0.091415   -0.263181   -2.198386
H      -1.973950   -1.818682   -2.097724
H      -2.371686   -0.792249   -0.680412
