15

C       0.121716    1.523311   -0.033222
C      -0.046637    0.002920    0.018024
O       0.518903   -0.620065   -1.132888
C       0.639296   -0.593296    1.234453
C       1.093831   -2.001630    1.245204
N       2.076475   -0.898266    1.190949
H       1.182079    1.790461   -0.071071
H      -0.375265    1.942554   -0.916042
H      -0.322388    1.993670    0.849782
H      -1.122106   -0.234582    0.081147
H       0.185323   -0.168048   -1.912973
H       0.310427   -0.146855    2.171213
H       1.088134   -2.565342    2.173955
H       0.935457   -2.586076    0.344726
H       2.379593   -0.803887    0.222909
