13

C      -0.015121    1.565696    0.051994
C       0.026436    0.076432    0.009043
C      -0.023180   -0.778287   -1.053275
O       0.043732   -2.070100   -0.654213
N       0.142385   -2.091833    0.729535
C       0.131174   -0.834774    1.102619
O       0.210812   -0.460396    2.384991
C      -0.129176   -0.520110   -2.441025
N      -0.216407   -0.273762   -3.568695
H       0.889104    1.968194    0.520030
H      -0.098343    1.983253   -0.953622
H      -0.867331    1.915646    0.643567
H       0.272946   -1.256643    2.930241
