17

C      -0.135981    1.459914    0.158856
C       1.226309    0.828015   -0.005636
C      -0.017251   -0.027255   -0.022053
N      -0.429645   -0.893397    1.077693
C      -0.647636   -2.019752    0.512838
C      -2.067090   -2.444087    0.198250
C      -1.600846   -1.863484   -1.188252
C      -0.462004   -0.816029   -1.240747
N      -0.174959   -2.209473   -0.905280
H      -0.423588    1.808618    1.143664
H      -0.540483    2.034738   -0.668015
H       1.759999    0.974738   -0.938793
H       1.857952    0.746037    0.871145
H      -2.257658   -3.512694    0.068039
H      -2.843358   -1.955152    0.784832
H      -2.053767   -2.195596   -2.121438
H      -0.184370   -0.482393   -2.238571
