20

C       0.473746    1.341717   -0.380652
C       0.108186   -0.066429    0.050795
O       0.789701   -1.078257   -0.737518
C       1.425874   -1.648730    0.435974
C       2.936988   -1.586146    0.269085
O       3.311452   -2.264953   -0.914876
C       0.691262   -0.652417    1.370963
C       1.485387    0.238873    2.319095
H       1.550914    1.519539   -0.320987
H       0.162756    1.500102   -1.418160
H      -0.038234    2.082814    0.242854
H      -0.978613   -0.200098   -0.032277
H       1.127524   -2.698004    0.557880
H       3.276000   -0.539017    0.248921
H       3.440435   -2.086971    1.103703
H       2.743269   -1.905612   -1.608269
H      -0.088172   -1.163891    1.941851
H       2.277443    0.797979    1.815048
H       0.826194    0.965508    2.805684
H       1.952265   -0.357746    3.109894
