18

C       0.019515    1.519196    0.058626
N       0.077902    0.061992   -0.000706
C       0.779049   -0.556677   -1.125602
C       2.303682   -0.529585   -0.875590
C       1.360127   -1.628725   -0.294911
C       1.056345   -0.632458    0.896966
C       0.670494   -0.929367    2.314341
C       2.451775   -0.039475    0.526468
O       3.366129    0.373066    1.186060
H       0.996232    2.014491   -0.068109
H      -0.653763    1.879123   -0.725647
H      -0.397992    1.824687    1.022656
H       0.380691   -0.588257   -2.133049
H       3.045696   -0.634335   -1.654506
H       1.441225   -2.701522   -0.366722
H       1.469184   -1.477985    2.822028
H       0.511212    0.002948    2.866045
H      -0.251790   -1.514804    2.356461
