14

C       0.070619    1.475403   -0.086215
N       0.047585    0.026319   -0.077572
C      -1.021277   -0.618074    0.096904
O      -1.077126   -1.967888    0.111107
C       0.181136   -2.617502   -0.088381
C      -0.048166   -4.059997   -0.045942
N      -0.182045   -5.205974   -0.019985
C      -2.341934   -0.053077    0.306806
N      -3.362824    0.463467    0.468647
H       0.757107    1.819838    0.693876
H       0.478385    1.814311   -1.043972
H      -0.908969    1.943313    0.069585
H       0.612257   -2.327704   -1.052354
H       0.892016   -2.320900    0.689931
