17

C      -0.648869    1.314805   -0.512986
N      -0.214470   -0.034158   -0.188071
C       0.832757   -0.503314   -0.700598
C       1.342082   -1.890760   -0.384961
C       1.882744   -2.580340   -1.614533
N       1.677230   -3.798246   -1.866202
O       2.602506   -1.761537   -2.451459
C       2.809272   -0.446077   -1.977463
O       1.603025    0.184967   -1.616408
H       0.125033    1.941829   -0.968895
H      -1.500168    1.262287   -1.202204
H      -1.008693    1.796187    0.401558
H       2.154220   -1.810191    0.352796
H       0.551013   -2.486819    0.062815
H       2.139333   -4.067023   -2.737271
H       3.507445   -0.454580   -1.128612
H       3.230469    0.123141   -2.805717
