15

O       0.270589    1.411561    0.306249
C       0.146163    0.051047    0.113172
C       1.310407   -0.743435    0.762219
C       1.121130   -2.228115    0.697264
C       1.552248   -1.506234   -0.548582
C       0.372034   -0.755008   -1.192762
O      -0.948807   -1.379482   -1.032012
C      -1.247969   -0.622250    0.087754
O      -2.282764   -0.568244    0.669160
H      -0.499968    1.857079   -0.063688
H       2.014041   -0.256251    1.424248
H       1.907263   -2.801515    1.177269
H       0.137960   -2.682537    0.762493
H       2.482919   -1.723821   -1.055609
H       0.494949   -0.311350   -2.178053
