19

O      -0.325978    1.329881    0.706104
C       0.047713    0.045894    0.267372
C       0.862884   -0.049527   -1.072817
C       1.903076   -0.990034   -0.382160
C       1.321595   -0.497081    0.945727
O       1.764391   -0.298631    2.042917
C      -1.127849   -0.916322    0.304234
C      -2.136724   -0.845240    1.418727
C      -2.519582   -0.406357    0.026495
H       0.148037    1.492126    1.531694
H       0.323039   -0.456827   -1.928131
H       1.291948    0.920475   -1.328739
H       1.701802   -2.050968   -0.558454
H       2.967165   -0.801341   -0.535866
H      -0.894134   -1.907548   -0.075092
H      -2.539122   -1.774595    1.805580
H      -2.005317   -0.063171    2.157147
H      -2.631786    0.658673   -0.137097
H      -3.185370   -1.034260   -0.554814
