25

C       0.016394    1.413793   -0.826989
C      -0.241324    0.573037    0.430482
C      -1.482624   -0.290198    0.308407
C      -1.481991   -1.692297   -0.299348
C      -0.244471   -2.384099   -0.836444
C      -0.410670   -3.907536   -0.912451
C      -1.768108   -1.506465    1.167020
C      -0.822314   -1.966474    2.254582
O      -3.123074   -1.734839    1.490247
H       0.897824    2.051390   -0.704862
H       0.179181    0.776370   -1.702027
H      -0.837758    2.063498   -1.047635
H       0.640421   -0.041595    0.639158
H      -0.350820    1.241945    1.294958
H      -2.380509    0.279372    0.074773
H      -2.380343   -1.920220   -0.868687
H      -0.024149   -1.993896   -1.838871
H       0.632784   -2.147409   -0.225250
H      -1.261606   -4.178983   -1.546516
H       0.482355   -4.384024   -1.329496
H      -0.590702   -4.335596    0.078875
H       0.227810   -1.852661    1.977608
H      -0.981554   -1.386992    3.173091
H      -1.004629   -3.019772    2.490484
H      -3.350746   -1.152626    2.224214
