21

C      -0.124419    1.573275    0.038058
C       0.066642    0.063259   -0.003649
C       1.160158   -0.545915   -0.950727
C       1.784470   -1.269038    0.257326
C       2.205593   -0.304091    1.325839
C       0.745457   -0.639161    1.196501
C       0.217964   -1.776300    2.037755
O       1.184450   -2.830708    1.890701
C       1.788879   -2.741100    0.590786
H       0.817818    2.093918    0.238978
H      -0.509655    1.945388   -0.917785
H      -0.835452    1.858695    0.821107
H      -0.896724   -0.419156   -0.200273
H       0.748372   -1.226993   -1.699387
H       1.816587    0.168833   -1.458019
H       2.706437   -0.738414    2.184576
H       2.565452    0.680971    1.044631
H       0.139792   -1.584605    3.112955
H      -0.773242   -2.087630    1.668430
H       1.207125   -3.298070   -0.162334
H       2.773930   -3.210759    0.680457
