20

C       0.569542    1.171662    0.027050
C      -0.270957   -0.127164   -0.025658
C      -1.770595    0.247719    0.022200
C       0.000883   -0.821943   -1.348073
C       0.873144   -1.791657   -1.601468
C       1.795594   -2.409098   -0.589926
O       1.184064   -2.853148    0.626239
C       0.530489   -1.965551    1.417984
N      -0.025991   -0.855674    1.214301
H       1.638367    0.942863   -0.008287
H       0.328940    1.823344   -0.818644
H       0.360557    1.707830    0.957032
H      -2.038461    0.888856   -0.824068
H      -2.391624   -0.652040   -0.014820
H      -1.990174    0.776709    0.952279
H      -0.582182   -0.431447   -2.180816
H       0.972512   -2.159863   -2.619370
H       2.262748   -3.308420   -0.997476
H       2.603962   -1.709620   -0.330501
H       0.512173   -2.376400    2.429493
