24

C       4.214172   -5.185409   -0.894816
C       2.694050   -5.049361   -0.989966
O       2.084577   -6.300449   -1.302562
C       2.085601   -4.418652    0.273704
C       0.608413   -4.116439    0.110254
C      -0.485563   -5.055449    0.505956
C      -0.239187   -6.419799    1.112782
N      -0.289334   -3.791674    1.224276
C       0.199667   -3.780182    2.593710
H       4.608126   -5.659152   -1.797943
H       4.695556   -4.209582   -0.774727
H       4.496895   -5.803701   -0.033066
H       2.449206   -4.412159   -1.849462
H       2.323982   -6.922041   -0.606245
H       2.281092   -5.082330    1.123519
H       2.620732   -3.483409    0.488427
H       0.420182   -3.490595   -0.764376
H      -1.382795   -5.039239   -0.113702
H       0.657303   -6.465829    1.734659
H      -1.087243   -6.724287    1.736231
H      -0.129751   -7.157158    0.311416
H       0.935667   -4.554576    2.853894
H       0.657203   -2.805847    2.795811
H      -0.653492   -3.892310    3.271101
