19

C      -0.608636    0.803926    0.175699
O       0.726889    0.311343    0.104197
C       1.002187   -0.375193   -1.050532
C       1.677805    0.096737   -2.155255
N       1.748901   -0.921990   -3.068206
C       2.517607   -0.896192   -4.290447
C       1.136959   -2.046980   -2.546286
C       0.655694   -1.737430   -1.292360
N      -0.110070   -2.523610   -0.409173
H      -0.804015    1.529504   -0.624886
H      -1.340063   -0.010319    0.099808
H      -0.712040    1.297909    1.145249
H       2.120475    1.060536   -2.346801
H       3.537661   -1.276201   -4.148635
H       2.023653   -1.506569   -5.051990
H       2.578022    0.129733   -4.661816
H       1.095848   -2.964116   -3.112053
H       0.057848   -3.514994   -0.527577
H       0.091467   -2.272846    0.552338
