14

N       0.010022    1.391302    0.143947
C      -0.058790    0.016180    0.052594
C      -1.207169   -0.716029    0.031083
N      -1.161085   -2.094898   -0.007615
C       0.016551   -2.766117   -0.022064
C       1.203986   -2.098165   -0.008288
C       1.260221   -0.656409    0.019147
O       2.294277    0.019707    0.004962
H       0.952572    1.705107   -0.064050
H      -0.722123    1.927155   -0.294802
H      -2.197320   -0.278026    0.048370
H      -2.025733   -2.607686   -0.020454
H      -0.055643   -3.846664   -0.048748
H       2.137732   -2.645541   -0.032364
