19

C      -0.024147    1.465134    0.055208
N       0.000176    0.014335    0.015035
C      -1.334290   -0.558701   -0.107006
C      -1.316038   -2.086437   -0.201583
O      -2.227704   -2.676066   -0.757276
C      -0.197940   -2.751988    0.438734
C       0.758041   -2.052544    1.095840
N       1.752292   -2.630407    1.838033
C       0.731532   -0.543471    1.134950
H       0.999436    1.854765    0.069959
H      -0.520276    1.847513   -0.841654
H      -0.556952    1.868895    0.938078
H      -1.988044   -0.285158    0.748882
H      -1.815342   -0.175171   -1.010482
H      -0.181382   -3.837198    0.401479
H       1.878270   -3.627363    1.757945
H       2.600674   -2.109070    1.990421
H       1.760915   -0.160386    1.105970
H       0.314784   -0.232487    2.118051
