19

C      -0.072784    1.627829    0.158798
C       0.007449    0.104413    0.066749
C       0.741867   -0.478499    1.296532
O       1.197318   -1.803568    1.116069
C      -1.394523   -0.512715   -0.064101
O      -2.133798   -0.188427    1.099890
O       0.614198   -0.291302   -1.188411
C       1.948881   -0.261049   -1.353101
O       2.463858   -0.584304   -2.382673
H       0.924282    2.071254    0.238066
H      -0.559895    2.032545   -0.732578
H      -0.657042    1.919561    1.034745
H       1.631557    0.114292    1.526772
H       0.058573   -0.384419    2.150336
H       0.435441   -2.387651    1.053275
H      -1.862037   -0.116887   -0.975722
H      -1.294016   -1.601537   -0.197204
H      -3.036365   -0.497915    0.984733
H       2.506397    0.095467   -0.472546
