20

C       0.345210    0.789273    2.656302
O      -0.029329   -0.497342    2.210270
C       0.701704   -0.987587    1.099984
C       0.461806   -2.485265    1.008737
C       0.356218   -3.313574    2.230261
N      -0.838039   -3.049412    1.402176
C       0.272259   -0.303677   -0.189338
C       1.043395    0.790528   -0.794409
O       1.125163   -0.537566   -1.310830
H       0.121906    1.568733    1.915800
H      -0.229726    0.991413    3.562972
H       1.417705    0.833720    2.897862
H       1.781199   -0.806224    1.238614
H       0.884894   -2.921946    0.107314
H       0.706933   -4.341579    2.218009
H       0.431938   -2.806226    3.186900
H      -1.375093   -2.313934    1.857780
H      -0.794570   -0.373480   -0.406446
H       0.543832    1.513038   -1.438002
H       1.943507    1.152996   -0.298719
