19

C      -0.092488    1.551962    0.013264
C       0.045763    0.027998   -0.002540
O       0.767076   -0.459223   -1.130844
C       2.103727   -0.728411   -0.741224
C       3.001863   -1.257927   -1.802225
C       3.196541    0.159096   -1.282516
C       2.060907   -1.197073    0.697155
C       0.816353   -0.481552    1.225253
O       0.491915   -0.321586    2.371322
H       0.889366    2.034270    0.025420
H      -0.633743    1.889269   -0.874209
H      -0.641748    1.860979    0.907068
H      -0.948927   -0.433644   -0.019087
H       3.729157   -2.016705   -1.534007
H       2.571465   -1.368189   -2.791327
H       2.894593    0.968395   -1.937357
H       4.059082    0.368134   -0.657848
H       1.886082   -2.279012    0.764311
H       2.942145   -0.956568    1.294068
