19

C      -0.195248    1.469522   -0.034394
C       0.032885   -0.044602   -0.008525
C       0.855851   -0.523106   -1.198622
O       0.747946   -0.457838    1.157030
C      -0.013876   -0.442774    2.346345
C       0.746494   -1.052294    3.427668
C       1.351224   -1.549175    4.349508
C       2.037454   -2.109629    5.382049
C       2.644329   -2.606394    6.300106
H       0.763922    1.995946   -0.001880
H      -0.717927    1.758121   -0.951789
H      -0.802906    1.809663    0.809381
H      -0.946145   -0.554248   -0.018596
H       1.838528   -0.041252   -1.197722
H       1.005006   -1.604547   -1.148978
H       0.351375   -0.279835   -2.138304
H      -0.291219    0.582837    2.640168
H      -0.959927   -0.995916    2.207636
H       3.180659   -3.043358    7.105401
