17

O      -0.047480    1.428176   -0.044340
C       0.048843    0.017004   -0.036406
C       0.144078   -0.624645    1.388450
C      -1.379216   -0.260038    1.517178
C      -1.364653   -0.620285   -0.013792
C      -1.055994   -2.126718    0.077244
N       0.320394   -2.526719   -0.315784
C       0.028522   -2.129865    1.087137
H       0.841508    1.778744    0.066738
H       0.749319   -0.339105   -0.791785
H       0.890070   -0.296681    2.113721
H      -1.990543   -0.884427    2.174833
H      -1.552606    0.798441    1.703859
H      -2.139145   -0.286000   -0.703441
H      -1.856240   -2.857266    0.050735
H       0.354424   -3.543691   -0.355778
H       0.109817   -2.864130    1.880683
