18

C      -0.195298    1.638610    0.100652
C      -0.127149    0.112263    0.026372
C       0.766899   -0.489129    1.130398
C       0.846774   -1.973305    1.095526
C       1.824522   -2.854186    0.730055
N       3.133844   -2.621235    0.298257
N       1.319941   -4.118376    0.924892
N       0.137669   -4.060819    1.369080
O      -0.218923   -2.697934    1.475177
H       0.797602    2.087741   -0.013113
H      -0.836474    2.043098   -0.687969
H      -0.600197    1.970377    1.062951
H      -1.132416   -0.314314    0.115634
H       0.253309   -0.199325   -0.954040
H       1.786845   -0.097442    1.044454
H       0.387809   -0.175465    2.111011
H       3.179231   -2.127844   -0.585184
H       3.634837   -3.497122    0.209849
