11

C       0.025403   -1.199239   -0.003876
C       0.002865    0.004551    0.002877
C      -0.001405    1.418166    0.010570
C      -1.094393    2.241170    0.029435
O      -0.716316    3.539000    0.031431
C       0.645647    3.560617    0.013613
C       1.141895    2.300856    0.000316
H       0.038360   -2.260735   -0.009720
H      -2.153834    2.048733    0.042359
H       1.096772    4.538679    0.012940
H       2.178486    2.006100   -0.014905
