20

C      -0.117099    1.635350   -0.066771
C       0.037341    0.120382   -0.047764
C       0.727962   -0.587194   -1.224887
C       2.174815   -0.202903   -1.311575
C       1.763086   -1.215898   -0.278799
C       1.108944   -0.530257    0.906932
O       1.968349    0.359047    1.614361
C       1.751377    0.536025    2.930030
N       2.411331    1.398099    3.574608
H       0.835397    2.143010   -0.235958
H      -0.810187    1.937595   -0.859059
H      -0.517274    2.000382    0.885055
H      -0.933899   -0.343320    0.154214
H       0.210671   -1.061778   -2.049368
H       2.712084   -0.618855   -2.157563
H       2.520844    0.779154   -1.006445
H       2.164554   -2.221448   -0.267747
H       0.654045   -1.234450    1.611893
H       0.984333   -0.137075    3.340533
H       2.137635    1.379272    4.554812
