16

C       0.064700    1.550862   -0.093391
C      -0.135450    0.040772    0.063576
C       0.644431   -0.548457    1.232625
C       0.731629   -2.101440    1.327511
C       2.264304   -1.916020    1.204463
O       3.230450   -2.629355    1.222735
N       2.110399   -0.555223    1.078595
H       1.116332    1.792406   -0.282834
H      -0.518179    1.942409   -0.932016
H      -0.245621    2.089795    0.808811
H      -1.199612   -0.179347    0.217056
H       0.166985   -0.474897   -0.856142
H       0.327820   -0.079999    2.173618
H       0.412177   -2.539615    2.274429
H       0.273094   -2.642770    0.497402
H       2.793866    0.187598    1.081849
