14

C       0.099873    1.462927    0.008644
C       0.027126    0.012378   -0.000149
C      -0.054982   -1.191853   -0.007152
C      -0.142763   -2.637125   -0.015631
O      -1.196311   -3.228205   -0.015717
C       1.224778   -3.341339   -0.024441
C       1.153946   -4.791549   -0.033046
C       1.106978   -5.991061   -0.040199
H       1.136391    1.814270   -0.015467
H      -0.422272    1.881572   -0.858465
H      -0.376043    1.867941    0.908272
H       1.779643   -2.967727   -0.895967
H       1.785397   -2.978354    0.847894
H       1.056715   -7.051609   -0.046496
