16

C      -0.545891    0.673802   -0.211780
N       0.728660    0.156009    0.238550
C       0.712398   -0.809519    1.037844
O       1.879021   -1.321654    1.509173
C       1.778607   -2.430110    2.362802
C       1.386482   -3.719213    1.634428
O       0.999273   -3.732547    0.490335
C       1.493458   -4.915170    2.449578
C       1.598533   -5.884325    3.155642
H      -0.617191    1.738976    0.035724
H      -0.606953    0.595226   -1.302975
H      -1.418945    0.157969    0.220441
H      -0.191196   -1.296662    1.432889
H       2.759334   -2.565428    2.828659
H       1.054942   -2.269538    3.178215
H       1.683150   -6.753853    3.762108
