14

O      -0.106698    0.042721   -0.203343
C       0.005036    1.213522   -0.018264
O      -1.069745    2.097882    0.040613
C      -0.493078    3.425733    0.281953
C       0.775043    3.486964   -0.560802
N       1.743498    4.016910    0.527664
C       2.567908    2.719431    0.388764
C       1.142103    2.181014    0.207652
C       0.647227    3.209804    1.269469
H      -1.296360    4.157351    0.336647
H       0.926224    3.694623   -1.619572
H       3.229523    2.713958   -0.480642
H       3.105200    2.444401    1.299428
H       0.648827    3.093100    2.352681
