21

O      -0.105324    1.477665   -0.296463
C       0.040480    0.113699    0.086175
C      -1.329881   -0.526243   -0.003805
C      -1.950477   -0.900567   -1.375590
C      -1.030767   -2.164593   -1.464775
C      -1.795490   -3.293795   -2.157542
C      -3.202996   -3.087183   -1.530456
C      -2.908003   -1.889109   -0.630510
C      -1.498425   -2.067431    0.026914
H       0.750866    1.906377   -0.208483
H       0.768200   -0.399802   -0.558510
H       0.409822    0.032155    1.122212
H      -2.015116    0.016904    0.657708
H      -2.216260   -0.225345   -2.191041
H       0.025186   -2.048861   -1.709183
H      -1.796367   -3.181171   -3.246632
H      -1.371132   -4.277623   -1.931717
H      -3.970651   -2.861821   -2.277755
H      -3.545756   -3.957409   -0.961272
H      -3.716158   -1.474612   -0.024092
H      -1.242468   -2.752855    0.839162
