25

C       0.024016    1.466564   -0.135151
C      -0.048855   -0.047470    0.076222
C      -1.463347   -0.590543   -0.076921
O      -1.442154   -1.984995    0.133822
C      -2.710727   -2.590800    0.016865
C      -2.561019   -4.089032    0.258593
C      -3.880057   -4.825688    0.174616
C      -4.423206   -5.273689   -1.161293
C      -3.917933   -6.292323   -0.168926
H       1.049065    1.830990   -0.021561
H      -0.318273    1.747229   -1.137469
H      -0.600161    2.001876    0.589007
H       0.600662   -0.563687   -0.640057
H       0.317687   -0.310725    1.075083
H      -2.140903   -0.102599    0.646564
H      -1.855122   -0.359663   -1.083747
H      -3.413855   -2.154223    0.748531
H      -3.137399   -2.406282   -0.983947
H      -1.858261   -4.494650   -0.479424
H      -2.100631   -4.238526    1.243069
H      -4.624580   -4.494743    0.895398
H      -5.491304   -5.210442   -1.337726
H      -3.817099   -5.083324   -2.041384
H      -2.975488   -6.785225   -0.384558
H      -4.641515   -6.922727    0.336029
