16

N       0.131414    1.423764    0.198490
C       0.038448    0.038154    0.006554
C      -0.785957   -0.652543   -0.830043
O      -0.491223   -1.994484   -0.782316
C       0.523651   -2.146189    0.101372
C       0.999061   -3.552356    0.308138
C       2.079354   -3.656269    1.281690
C       2.969436   -3.750457    2.082491
C       0.894700   -0.944747    0.615479
H       0.352718    1.668812    1.154963
H      -0.703790    1.918743   -0.086154
H      -1.579869   -0.366699   -1.498604
H       0.154667   -4.179789    0.626893
H       1.328745   -3.971379   -0.653158
H       3.757102   -3.837454    2.789147
H       1.682588   -0.773468    1.331589
