22

C       0.056720    1.403114    0.243101
C      -0.140705   -0.111436    0.142755
C      -1.503316   -0.480215   -0.455743
N      -1.706905   -1.914445   -0.575224
C      -2.588739   -2.605138    0.206886
O      -3.325369   -2.083154    1.017762
C      -2.529155   -4.124707    0.005643
O      -3.808245   -4.657465    0.190092
C      -3.820736   -6.064650    0.168610
H       1.033235    1.647880    0.670842
H      -0.003664    1.878740   -0.742245
H      -0.709948    1.859724    0.878162
H       0.657630   -0.549685   -0.471311
H      -0.057384   -0.570719    1.134587
H      -2.312621   -0.112712    0.179842
H      -1.617393   -0.013311   -1.442922
H      -1.143958   -2.424318   -1.236609
H      -2.130833   -4.376284   -0.993868
H      -1.816441   -4.531575    0.746115
H      -4.853082   -6.380946    0.333643
H      -3.475999   -6.465824   -0.798314
H      -3.185282   -6.489969    0.961808
