20

O       0.010351    1.412091   -0.219613
C       0.031797   -0.000912   -0.002853
C       0.554538   -0.391314    1.400417
C      -0.697093   -0.485140    2.261012
C      -1.687681    0.619040    2.180117
N      -1.887450   -0.618789    1.395996
C      -1.405272   -0.515355    0.022628
C      -2.386901   -0.193571   -1.061327
C      -1.853638   -1.601044   -0.921099
H       0.918165    1.730328   -0.175093
H       0.617317   -0.482762   -0.796955
H       1.043271   -1.371055    1.355303
H       1.291439    0.327364    1.774921
H      -0.665289   -1.120477    3.141833
H      -2.404176    0.751492    2.985838
H      -1.406060    1.520751    1.647160
H      -3.410270   -0.011487   -0.754001
H      -2.042032    0.418546   -1.886560
H      -1.149877   -1.964059   -1.663047
H      -2.518052   -2.351524   -0.509139
