18

C       0.042916    1.598468   -0.170489
C       0.043228    0.082731    0.003429
N       0.701490   -0.595480   -1.126669
C       1.478907   -1.456368   -0.622057
O       1.595971   -1.570348    0.720561
C       0.783169   -0.483452    1.285645
C       1.754993    0.478823    1.974668
C      -0.157045   -1.052743    2.243692
C      -0.955449   -1.479395    3.033873
H       1.056796    1.998454   -0.252439
H      -0.489650    1.848781   -1.091299
H      -0.464548    2.092088    0.663949
H      -0.997614   -0.258814    0.033031
H       2.096521   -2.151567   -1.180941
H       2.475945    0.871624    1.253493
H       1.216196    1.313060    2.429668
H       2.298376   -0.052556    2.758946
H      -1.656980   -1.867924    3.730494
