12

N      -0.094778    1.300203    0.009671
N       1.066788    1.927555    0.002473
H       1.000534    2.936594    0.008708
N       2.305151    1.463064   -0.011519
C       2.451522    0.141658   -0.020231
C       1.328253   -0.684238   -0.014493
N       1.132771   -2.002089   -0.020049
C      -0.234376   -2.081190   -0.007882
N      -0.947044   -0.947198    0.004994
C       0.032149   -0.016294    0.001162
H       3.473324   -0.220141   -0.031660
H      -0.723917   -3.047959   -0.008768
