24

C      -0.113393    1.518573    0.174610
C       0.009190   -0.004651    0.050950
C       0.694122   -0.548676   -1.227673
C       0.701996   -2.087041   -1.164644
C       0.000621   -0.061028   -2.526092
C      -1.486793   -0.401342   -2.668499
C       2.168308   -0.047693   -1.315613
C       2.986315   -0.394301   -0.155218
N       3.621741   -0.672220    0.769779
H       0.863132    2.013371    0.182431
H      -0.703625    1.955059   -0.637182
H      -0.609398    1.779287    1.114375
H       0.559430   -0.387927    0.918376
H      -0.990237   -0.449445    0.114438
H      -0.312642   -2.483964   -1.073486
H       1.152168   -2.519170   -2.065504
H       1.272925   -2.440768   -0.300668
H       0.123184    1.025817   -2.608714
H       0.543927   -0.487227   -3.379957
H      -1.665787   -1.480061   -2.640887
H      -2.089682    0.057809   -1.879275
H      -1.866528   -0.032124   -3.626093
H       2.644319   -0.472515   -2.207209
H       2.194934    1.040403   -1.437899
