19

O      -0.001813    1.337696    0.212635
C       0.026057   -0.044225    0.051803
C       0.355101   -0.898837    1.326242
C      -0.922705   -1.753649    1.109972
C      -2.147917   -1.285548    1.930491
C      -2.456637   -0.205131    0.847301
C      -1.345116   -0.797190   -0.061822
C       0.911830   -0.409291   -1.111989
O       1.445277    0.427682   -1.801732
H       0.507909    1.703501   -0.528684
H       1.304758   -1.439962    1.291021
H       0.341814   -0.282306    2.228234
H      -0.767318   -2.825050    0.981207
H      -2.928172   -2.048688    1.992690
H      -1.938666   -0.926287    2.942620
H      -3.459779   -0.263029    0.420692
H      -2.266937    0.828099    1.143199
H      -1.652163   -1.138235   -1.052604
H       1.038281   -1.493420   -1.311121
