23

C       0.409135    1.403951    0.271380
C      -0.085991   -0.049197    0.161367
C       0.175242   -0.786890    1.487926
C      -1.602820   -0.041081   -0.113449
C       0.589801   -0.777355   -1.031730
C       2.129355   -0.753253   -1.094914
O       2.738617   -1.441698   -0.035433
C       2.593715   -1.333719   -2.416019
O       3.375808   -2.252319   -2.469340
H       1.465377    1.455420    0.553437
H       0.281163    1.945980   -0.673068
H      -0.157335    1.940860    1.039494
H      -0.350448   -0.285798    2.308476
H      -0.189487   -1.818891    1.439913
H       1.239235   -0.823914    1.725358
H      -1.842840    0.519468   -1.024190
H      -1.988821   -1.059278   -0.234783
H      -2.144768    0.423150    0.717344
H       0.267320   -1.826339   -1.039339
H       0.218461   -0.323956   -1.961924
H       2.460063    0.301957   -1.105496
H       3.319380   -2.099131   -0.451438
H       2.178090   -0.867735   -3.332852
