23

C      -0.009931    1.153009   -0.823786
C      -0.097529    0.186200    0.365006
C      -1.447287   -0.523370    0.447395
C      -2.541207    0.346243    1.045344
O      -1.827047   -1.253911   -0.739620
C      -1.531503   -2.007317    0.459010
C      -0.310031   -2.902511    0.372345
C      -2.750153   -2.741091    1.004202
O      -3.203491   -3.704052    0.064412
H       0.976756    1.623358   -0.866681
H      -0.177234    0.614724   -1.760556
H      -0.754249    1.952995   -0.759503
H       0.715278   -0.539165    0.293869
H       0.057188    0.731399    1.304463
H      -2.494060    1.354679    0.622493
H      -3.535823   -0.048108    0.838509
H      -2.415553    0.438000    2.129778
H       0.436490   -2.506303   -0.316065
H       0.149984   -3.035385    1.357913
H      -0.621541   -3.885571    0.007532
H      -2.476946   -3.297289    1.907540
H      -3.553855   -2.046404    1.271474
H      -3.345471   -3.222420   -0.759656
