15

O      -0.046939   -0.041327   -0.087176
C      -0.040706    1.140093    0.047459
C      -0.967579    2.377386    0.070506
C      -0.006917    2.986433    1.126786
C       0.927645    2.358560    0.055311
C       2.430059    2.461017   -0.062338
C       2.922172    1.902736   -1.321795
N       3.288737    1.472866   -2.329202
N      -0.021530    2.969013   -0.974600
H      -2.046843    2.477396   -0.008771
H       0.001721    4.077743    1.115923
H      -0.002615    2.555747    2.128651
H       2.738769    3.510515    0.001746
H       2.898727    1.930262    0.773942
H      -0.028433    2.418535   -1.839089
