23

C      -0.061457    1.438741   -0.226091
C       0.188145   -0.050922   -0.142399
C       1.593885   -0.592641   -0.011998
C       0.639930   -0.684704    1.146852
C       0.841173   -0.019458    2.518194
C       0.614957   -1.411751    3.179043
C       0.150009   -1.986973    1.807337
C      -1.348338   -2.221452    1.710550
O      -1.673351   -3.318060    2.554091
H       0.630920    1.991613    0.416994
H       0.071351    1.807188   -1.249458
H      -1.079688    1.693807    0.089674
H      -0.483847   -0.652047   -0.751659
H       1.850032   -1.503808   -0.544572
H       2.407306    0.124318    0.061460
H       1.813899    0.447604    2.695170
H       0.063377    0.709511    2.768383
H       1.540752   -1.867182    3.536708
H      -0.126398   -1.462344    3.979042
H       0.668259   -2.897956    1.491075
H      -1.887441   -1.309477    2.016864
H      -1.628121   -2.428372    0.664775
H      -2.624821   -3.452375    2.520294
