27

C       0.218879    1.639281    0.002504
C       0.030723    0.119378   -0.021062
C       0.559195   -0.558941    1.248252
C       0.617217   -2.103608    1.209404
C      -0.764976   -2.718199    0.970393
O       1.411963   -2.531781    0.091712
C       1.250524   -2.610465    2.525784
C       1.461978   -4.125875    2.622412
C       2.296990   -4.526510    3.842378
H       1.278375    1.906980    0.086615
H      -0.169358    2.102871   -0.909870
H      -0.302115    2.093177    0.853319
H      -1.033764   -0.107376   -0.150816
H       0.544571   -0.309366   -0.888389
H       1.579147   -0.193542    1.443905
H      -0.038194   -0.245976    2.114901
H      -1.182866   -2.368946    0.023841
H      -0.698496   -3.807063    0.920109
H      -1.454062   -2.447924    1.776505
H       2.295318   -2.163407    0.204939
H       2.225295   -2.111288    2.638644
H       0.641417   -2.264062    3.371302
H       0.493237   -4.636563    2.668596
H       1.948650   -4.471931    1.703982
H       2.431263   -5.611570    3.894204
H       3.292618   -4.069434    3.809578
H       1.820042   -4.205875    4.775680
