20

C      -0.154870    1.533631    0.096746
C       0.031272    0.014753    0.037818
C       0.719755   -0.466317   -1.237882
C       1.000657   -1.980469   -1.310540
C       0.859697   -2.316003   -2.804118
O       1.348039   -3.251810   -3.383280
C       0.053379   -1.211063   -3.419712
C      -1.228106   -0.914403   -2.702614
N      -0.053056   -0.090560   -2.465786
H       0.810993    2.049388    0.062884
H      -0.748270    1.889019   -0.749566
H      -0.659845    1.830883    1.020632
H       0.629715   -0.321980    0.893360
H      -0.941071   -0.486723    0.132171
H       1.672808    0.067255   -1.341640
H       1.996344   -2.255260   -0.958496
H       0.282034   -2.576852   -0.734889
H       0.169422   -0.998889   -4.476757
H      -2.026704   -0.429405   -3.255671
H      -1.565725   -1.612871   -1.940614
