13

O      -0.027225    1.370028   -0.193711
N       0.057210   -0.024857   -0.093213
C      -1.087287   -0.610287    0.054819
C      -1.108519   -2.057513    0.168292
C      -2.274942   -2.715267    0.322644
N      -3.456752   -2.030727    0.375363
N      -3.535338   -0.686531    0.279104
C      -2.439676   -0.034764    0.131417
F      -2.579801    1.276642    0.043684
H       0.899372    1.610279   -0.295631
H      -0.168088   -2.589352    0.125798
H      -2.352654   -3.791387    0.412624
H      -4.342993   -2.489734    0.488618
