16

O       0.412724    0.122367    0.687341
C       0.279863    1.272543    0.415888
O      -0.905186    1.958829    0.182621
C      -0.157885    3.135230   -0.246637
C       0.603513    3.661558    0.912362
C       1.156375    2.473394    0.104830
N       2.425403    2.543617   -0.508215
C       3.504127    1.734161    0.071587
C       2.908870    1.371814   -1.244096
H      -0.493441    3.638653   -1.140956
H       1.174496    4.568250    0.736900
H       0.215644    3.527323    1.916971
H       4.471584    2.224419    0.123629
H       3.258231    1.093678    0.914250
H       2.278795    0.487316   -1.272861
H       3.436078    1.598255   -2.165840
