13

O       0.031049   -0.015736   -0.046398
C       0.009131    1.189372   -0.016824
C      -1.196619    2.070247   -0.011318
C      -0.847911    3.368721   -0.009670
C       0.636918    3.527047   -0.013857
O       1.259633    4.559108   -0.040592
C       1.198342    2.123078    0.034516
C       2.469023    1.780990    0.702567
O       2.370274    1.809299   -0.709556
H      -2.200431    1.662769   -0.001836
H      -1.512545    4.224237    0.001415
H       3.043534    2.590003    1.149847
H       2.560675    0.791948    1.147563
