16

N       0.097788   -1.168419    0.068760
C       0.054909   -0.013837    0.047084
C      -0.002768    1.449613    0.020559
C      -0.820995    1.995082    1.222497
C      -0.734845    3.495276    1.316397
C       0.358636    4.165250    0.949571
C       1.546768    3.452691    0.419808
O       2.037971    2.326029    1.191733
C       1.394831    2.061753   -0.041030
H      -0.510544    1.737953   -0.910333
H      -1.859529    1.666984    1.125927
H      -0.430584    1.542522    2.140538
H      -1.593300    4.022558    1.721098
H       0.411621    5.245972    1.029428
H       2.341546    4.056814   -0.011165
H       2.038247    1.679943   -0.833253
