20

C      -0.242271    1.570911    0.360435
C      -0.073862    0.092846    0.170416
C      -1.212751   -0.937037    0.060726
C      -0.294291   -1.997741    0.752988
C       0.812121   -0.936344    0.843744
N       1.126290   -0.413698   -0.488700
C       1.844622   -0.817031    1.901560
C       1.647482   -1.306057    3.272610
O       2.446909   -2.043301    2.348889
H       0.721335    2.049658    0.551394
H      -0.669823    2.028646   -0.539927
H      -0.915752    1.788174    1.196312
H      -2.084404   -0.683581    0.669744
H      -1.552309   -1.155153   -0.957867
H      -0.687334   -2.315410    1.721070
H      -0.033191   -2.890668    0.176711
H       0.931010   -1.082561   -1.232748
H       2.553492   -0.005404    1.741531
H       2.189088   -0.832917    4.091132
H       0.705956   -1.774674    3.555125
