18

C      -0.019713    1.468506    0.075597
C      -0.004477   -0.016330   -0.008904
C      -0.063135   -0.874401   -1.030534
C       0.004340   -2.243389   -0.316131
C       0.161457   -3.516149   -1.098141
C      -1.029409   -2.022848    0.838722
C       0.091010   -1.003104    1.181463
O       1.058382   -1.981157    0.687090
H       0.889952    1.848530    0.558046
H      -0.094765    1.926373   -0.914687
H      -0.864065    1.827098    0.678607
H      -0.137571   -0.700732   -2.094969
H       1.076325   -3.486002   -1.698499
H       0.216672   -4.379293   -0.429567
H      -0.687588   -3.654048   -1.775539
H      -2.026017   -1.651896    0.588648
H      -1.064168   -2.863389    1.537340
H       0.293543   -0.628417    2.184914
