19

C       0.576002    1.144325   -0.225835
O       0.633658   -0.261167   -0.057045
C       0.542672   -0.668101    1.280373
C       0.517328   -2.202375    1.327156
C       1.981924   -2.586281    1.524003
O       2.760651   -2.598257    0.309832
C       3.485134   -1.408246    0.695833
C       2.662265   -1.280564    1.997400
O       1.672947   -0.269900    2.049217
H       1.410824    1.645871    0.277539
H       0.627812    1.339149   -1.298992
H      -0.367130    1.553556    0.167476
H      -0.322811   -0.186483    1.757362
H      -0.077466   -2.537089    2.182165
H       0.100268   -2.623165    0.411393
H       2.123836   -3.502954    2.104501
H       4.552664   -1.615314    0.841983
H       3.354241   -0.589306   -0.017033
H       3.219882   -1.258674    2.934311
