16

O      -0.094611    0.082991   -0.386242
C      -0.094521    1.239804   -0.078611
C      -1.159552    2.220073    0.439549
C      -0.055016    3.323573    0.466333
C       1.001806    2.313149   -0.058147
C       2.355175    2.036894    0.636599
O       3.094211    2.277699   -0.573748
C       1.885800    2.553244   -1.303754
H      -1.985823    2.383593   -0.258447
H      -1.583206    1.940032    1.408440
H      -0.239174    4.162910   -0.207923
H       0.164215    3.718568    1.460789
H       2.613886    2.748147    1.431826
H       2.485309    1.010892    1.001838
H       1.729021    1.842886   -2.124624
H       1.858104    3.579564   -1.692467
