18

C       0.008582    1.426537    0.096024
O       0.072731    0.009825    0.025110
C       0.686626   -0.580944    1.121280
O      -0.104171   -0.450023    2.313783
C      -0.478504   -1.702339    2.761071
C       0.119452   -2.697469    1.860867
C       0.802727   -2.067324    0.908810
N      -1.194318   -1.944099    3.771362
C      -1.727383   -0.846176    4.557673
H       1.010466    1.863689    0.219481
H      -0.417934    1.770513   -0.847951
H      -0.627173    1.756296    0.925339
H       1.649727   -0.084857    1.329031
H      -0.023624   -3.758053    2.004865
H       1.348238   -2.488755    0.076630
H      -1.495612    0.149967    4.165145
H      -2.815822   -0.955733    4.626569
H      -1.340438   -0.919443    5.581129
