18

O      -0.033711    1.446531   -0.040246
C       0.036817    0.033981    0.008372
C       0.642683   -0.549267    1.325516
C      -0.560947   -1.318719    1.924414
C      -1.609953   -0.315278    2.438788
C      -2.181320    0.221466    1.113081
O      -3.053489    1.029144    0.963250
C      -1.406701   -0.553011    0.033167
N      -1.277881   -1.848749    0.732360
H       0.860676    1.796923   -0.090920
H       0.569102   -0.356167   -0.870958
H       1.472726   -1.231671    1.118345
H       1.015153    0.251482    1.971335
H      -0.299393   -2.103026    2.635366
H      -2.404224   -0.814583    3.001019
H      -1.208699    0.496434    3.050099
H      -1.911595   -0.595908   -0.929726
H      -0.679565   -2.481994    0.205749
