20

C       0.446852    1.559334    0.055618
C       0.137616    0.069776    0.048250
C       0.942872   -0.861883   -0.915210
C       1.352654   -1.767826    0.289838
C       2.594672   -1.264320    0.975682
N       3.818053   -1.534326    0.909354
O       1.925295   -0.335166    1.754748
C       0.614003   -0.789158    1.253235
C      -0.316903   -1.145376    2.378108
H       1.508866    1.738058    0.243681
H       0.188499    2.011013   -0.907937
H      -0.123597    2.081230    0.831667
H      -0.937875   -0.086815   -0.091157
H       0.324961   -1.375388   -1.653772
H       1.785521   -0.395695   -1.430787
H       1.189306   -2.841479    0.227208
H       4.360585   -0.945445    1.544170
H      -0.577424   -0.252509    2.957323
H      -1.242565   -1.577839    1.986053
H       0.146694   -1.867796    3.056208
