19

O      -0.079283    1.487590    0.102834
C       0.036223    0.071647    0.053071
C       0.732847   -0.492979    1.297937
C       0.542260   -1.981838    1.426215
C      -0.370288   -2.670923    0.745042
C      -1.345768   -2.031216   -0.229497
C      -1.375327   -0.493210   -0.060304
C      -1.033552   -2.432161   -1.604961
C      -0.771952   -2.759890   -2.731970
H       0.808071    1.857902    0.147048
H       0.602460   -0.235280   -0.840634
H       1.805479   -0.256321    1.272664
H       0.330870    0.021859    2.182685
H       1.197181   -2.505001    2.118947
H      -0.445072   -3.748533    0.858552
H      -2.351298   -2.412392   -0.002167
H      -1.928545   -0.245759    0.853014
H      -1.894711   -0.026839   -0.900863
H      -0.543257   -3.051464   -3.726993
