14

N       0.195667    1.440190    0.011311
C      -0.009998    0.047578    0.012076
C      -1.094393   -0.813256   -0.015151
N      -2.450573   -0.965167   -0.053180
N      -2.775989   -2.302278   -0.056480
N      -1.703215   -3.011178   -0.022063
C      -0.623543   -2.153726    0.004834
C       0.764181   -2.125614    0.044698
N       1.091388   -0.799144    0.047851
H      -0.162098    1.893668   -0.822429
H      -0.208822    1.901475    0.819009
H      -3.196422   -0.293072   -0.078877
H       1.512168   -2.898752    0.069992
H       2.028544   -0.429938    0.073012
