14

O      -0.012327   -0.030788    0.395310
C       0.015634    1.090090   -0.039841
C       1.291230    1.917255   -0.087433
C       1.447801    2.891835    1.148245
C       2.601660    1.946626    1.563476
O       3.314395    1.840777    2.516506
N       2.490907    1.227727    0.382626
C       1.456838    2.635540   -1.419910
O       0.537834    3.019793   -2.093722
H      -0.879937    1.600059   -0.442594
H       1.742659    3.914420    0.905041
H       0.600193    2.903423    1.835480
H       2.719658    0.253086    0.236317
H       2.520660    2.792512   -1.705067
