18

C      -0.057270    1.545607    0.081603
C       1.463849    1.267796    0.052877
C       1.183533    0.064241    1.028984
C       0.093299   -0.002520   -0.079667
C      -0.901165   -0.875622   -0.792627
O      -0.794393   -0.425886   -2.160081
C       0.405628    0.361170   -2.396156
C       1.216739    0.245997   -1.112491
H      -0.471096    1.888222    1.033590
H      -0.485833    2.102236   -0.751924
H       2.273426    1.993798    0.141965
H       1.923137   -0.740733    1.040535
H       0.853624    0.326518    2.037519
H      -0.642951   -1.942280   -0.718247
H      -1.941797   -0.742292   -0.479055
H       0.929043   -0.071247   -3.255275
H       0.109278    1.382488   -2.661167
H       1.964494   -0.551053   -1.171469
