20

C       0.195658    1.042136   -0.424133
O      -0.438854    0.236812    0.551578
C       0.439280   -0.488672    1.344828
C      -0.237046   -1.352909    2.419374
C       0.792818   -2.480449    2.138424
C       0.331050   -3.927289    2.161198
C       1.127244   -1.792064    0.760244
C       0.428498   -2.354438   -0.381670
N      -0.122311   -2.806578   -1.292963
H       0.746783    0.436654   -1.156481
H      -0.590482    1.591853   -0.945098
H       0.890382    1.759396    0.038905
H       1.225514    0.158613    1.763259
H      -0.300792   -0.949404    3.431413
H      -1.237216   -1.637790    2.079430
H       1.668365   -2.356905    2.783532
H      -0.516291   -4.083627    1.487147
H       1.132863   -4.607513    1.855386
H       0.018777   -4.210128    3.172061
H       2.189417   -1.708202    0.517452
