18

C       0.004084    1.610713    0.125872
C       0.019790    0.072066    0.021761
C       0.763516   -0.499357    1.150464
N       1.347928   -0.907148    2.060034
C      -1.397538   -0.518841   -0.044132
C      -2.332147   -0.150626   -1.241376
C      -2.745695   -1.646751   -1.388445
C      -1.559770   -1.993128   -0.475478
O      -0.907457   -2.976308   -0.288322
H       1.021643    2.007733    0.151271
H      -0.514129    2.038640   -0.736185
H      -0.511302    1.931581    1.035399
H       0.553009   -0.214658   -0.894096
H      -1.911173   -0.358366    0.911440
H      -3.131480    0.558990   -1.028070
H      -1.766416    0.201566   -2.108096
H      -3.701966   -1.876173   -0.907442
H      -2.738133   -2.095538   -2.384002
