17

C      -0.204874    1.525268   -0.102463
C      -0.022219    0.028541    0.004025
C       1.313749   -0.612178   -0.281405
C       0.770436   -0.599283    1.125508
N       1.401866    0.233195    2.108197
C       2.704328    0.437785    2.384137
N       2.808698    1.235861    3.422295
N       1.528925    1.516623    3.792492
N       0.679535    0.925358    3.022403
H       0.707475    2.065173    0.165387
H      -0.467483    1.802318   -1.128288
H      -1.000899    1.871494    0.562900
H      -0.893849   -0.553268   -0.281896
H       1.359589   -1.567157   -0.791544
H       2.139041    0.056179   -0.502965
H       0.404553   -1.531322    1.542309
H       3.514057    0.002475    1.822824
