18

C      -0.355555    1.387086   -0.060514
N       0.073015    0.003062   -0.002437
C       0.893790   -0.446497   -1.130553
C       1.307658   -1.861837   -0.718757
C       1.306234   -1.815251    0.809365
O       1.649628   -2.679048    1.564526
C       0.755067   -0.419525    1.220808
C       1.876583    0.433293    1.641431
C       2.803512    1.141851    1.934875
H       0.481272    2.104664   -0.029441
H      -0.915378    1.547841   -0.987343
H      -1.022498    1.604336    0.779852
H       0.302275   -0.418129   -2.050257
H       1.782879    0.191253   -1.282397
H       0.570463   -2.608515   -1.032318
H       2.283571   -2.180359   -1.091749
H       0.044324   -0.532519    2.046954
H       3.618233    1.762386    2.217039
