22

C      -0.145855    1.560077   -0.024693
C      -0.020973    0.034209   -0.081669
C       0.829584   -0.501648   -1.249273
C       2.299694   -0.068327   -1.150651
C       0.726533   -2.024600   -1.329171
C      -0.625531   -2.647782   -1.748729
O      -0.014457   -3.354504   -2.846466
C       1.260972   -2.730807   -2.597026
H       0.819877    2.045019    0.146804
H      -0.555984    1.958023   -0.959795
H      -0.813665    1.866674    0.786387
H       0.400820   -0.336174    0.863178
H      -1.027548   -0.397856   -0.152552
H       0.413996   -0.093027   -2.183616
H       2.406219    1.019621   -1.173703
H       2.750249   -0.428611   -0.217797
H       2.888997   -0.471052   -1.981063
H       1.121772   -2.468490   -0.409257
H      -1.100911   -3.330949   -1.034915
H      -1.375132   -1.922256   -2.096451
H       1.549919   -2.051600   -3.412039
H       2.058286   -3.469929   -2.454688
