18

C      -0.017790   -1.241008   -0.038900
C      -0.005564   -0.040006   -0.003920
C       0.015469    1.416949    0.016820
C       1.432037    2.013278    0.005845
C       1.461013    3.546725   -0.070033
C       2.761738    3.878737    0.672839
C       2.774986    2.801141    1.763727
O       2.106968    1.665439    1.215337
H      -0.027478   -2.302292   -0.058559
H      -0.530099    1.802903   -0.854640
H      -0.505560    1.787506    0.908441
H       1.984405    1.581967   -0.842963
H       1.435474    3.915813   -1.098087
H       0.598024    3.965955    0.461685
H       3.622350    3.759183    0.006200
H       2.786912    4.893091    1.078125
H       3.785933    2.505170    2.064500
H       2.242450    3.143194    2.663911
