18

O       0.056247   -0.166263   -0.157882
C       0.059334    1.039849   -0.138450
C       1.298827    1.871762   -0.096584
C       1.728834    2.949963    0.940616
N       2.903144    2.979382   -0.058710
C       2.778032    1.436491   -0.044383
C       1.809497    2.915848   -1.111516
C       1.998033    2.952987   -2.579963
C       1.231824    4.063670   -1.849719
H      -0.893584    1.619282   -0.152910
H       1.164711    3.883581    0.978950
H       2.012823    2.597427    1.935236
H       3.140837    0.983405    0.880709
H       3.200041    0.957604   -0.928786
H       2.986627    3.194833   -2.956350
H       1.430674    2.268891   -3.202787
H       0.157596    4.119000   -1.994081
H       1.724504    5.025513   -1.750541
