15

C      -0.078597    1.439805   -0.020574
C       0.146851   -0.053687    0.096833
C       0.733479   -0.744671   -1.151185
O       1.697589   -1.672336   -0.635797
C       1.678097   -1.560804    0.766159
O       1.159208   -0.308370    1.086714
C       0.847127   -2.657229    1.357587
N       0.211419   -3.502649    1.821698
H       0.850203    1.946845   -0.297410
H      -0.833885    1.647504   -0.784638
H      -0.431869    1.850054    0.928680
H      -0.779346   -0.560091    0.403055
H      -0.026696   -1.278187   -1.729623
H       1.253220   -0.035147   -1.804591
H       2.697427   -1.637663    1.156205
