21

C       0.382481    1.564528   -0.581025
C       0.219495    0.145315   -0.297101
C       0.088719   -1.029521   -0.062888
C      -0.059194   -2.448185    0.227290
C       0.277295   -2.850845    1.696389
C      -0.583967   -4.071829    1.905625
C      -1.513499   -4.195937    0.960498
C      -1.480132   -3.064334   -0.044405
C      -2.654773   -2.093169    0.152977
H       1.194429    1.999097    0.013001
H       0.618606    1.736925   -1.637159
H      -0.530121    2.125909   -0.351218
H       0.637532   -3.004727   -0.412386
H       1.348073   -3.040470    1.825864
H       0.015080   -2.051315    2.401570
H      -0.459744   -4.734962    2.754867
H      -2.269462   -4.973492    0.922681
H      -1.521969   -3.438442   -1.074652
H      -2.651520   -1.669267    1.162229
H      -2.603672   -1.267054   -0.561395
H      -3.608150   -2.613115    0.011532
