15

O       0.346425    0.963752    0.827643
C       0.042666    0.064211   -0.224327
C      -1.379889   -0.418646   -0.181696
C      -2.217160   -0.376760    0.900385
O      -3.428102   -0.892743    0.608360
C      -3.386002   -1.288475   -0.695583
C      -4.563871   -1.889618   -1.300215
O      -5.621246   -2.084418   -0.745107
C      -2.149443   -1.014953   -1.222645
H      -0.197080    1.749608    0.705593
H       0.258281    0.500829   -1.211948
H       0.734724   -0.776541   -0.097628
H      -2.081508   -0.017070    1.907016
H      -4.396886   -2.166068   -2.364723
H      -1.835789   -1.217283   -2.236226
