24

C      -0.053301    1.601369   -0.127753
C      -0.001127    0.072069   -0.070733
N       0.677239   -0.332069    1.172472
C       1.604081   -1.459180    1.128302
C       2.106836   -0.069361    1.286484
C      -1.423882   -0.570199   -0.046315
C      -2.299334   -0.062897   -1.194760
C      -1.343017   -2.106450   -0.108672
O      -2.071689   -0.176930    1.161632
H       0.942967    2.028427    0.016326
H      -0.424025    1.946534   -1.095351
H      -0.712884    1.983896    0.655201
H       0.544642   -0.306208   -0.953490
H       1.570771   -2.138018    1.975936
H       1.772512   -1.940619    0.166882
H       2.614571    0.370876    0.430138
H       2.449471    0.292493    2.251759
H      -1.830329   -0.258515   -2.164696
H      -3.264961   -0.576071   -1.173010
H      -2.489471    1.007866   -1.103403
H      -0.802353   -2.511081    0.749865
H      -2.354568   -2.521581   -0.090822
H      -0.846138   -2.449331   -1.023450
H      -1.393488   -0.262211    1.847803
