21

C      -0.108427    1.349683    0.019502
O       0.271792   -0.009727    0.143524
C       0.698232   -0.589685   -1.061664
C       1.369766   -1.944765   -0.889927
C       0.397859   -2.952518   -0.345573
C       0.326068   -2.597197   -1.805338
C      -0.378582   -1.253701   -2.019753
C      -1.853830   -1.159238   -1.677574
O      -2.330947    0.110007   -2.122673
H       0.735533    1.968054   -0.324642
H      -0.945461    1.472920   -0.678103
H      -0.407052    1.690114    1.014458
H       1.327180    0.116342   -1.621018
H       2.440092   -2.104858   -0.853389
H       0.827952   -3.926329   -0.134317
H      -0.372522   -2.647693    0.354746
H       0.490289   -3.337279   -2.579041
H      -0.244009   -0.889202   -3.042496
H      -2.393523   -1.976926   -2.182108
H      -2.004301   -1.273899   -0.596092
H      -3.238002    0.210947   -1.819423
