14

N      -0.066701    1.406389    0.160319
C       0.054294    0.023834    0.050221
N      -1.031266   -0.762111   -0.005671
N      -0.560828   -2.062003   -0.071241
C       0.777168   -2.056260   -0.007754
C       1.212620   -0.775489    0.061631
O       2.602517   -0.754887   -0.036281
C       2.934439   -2.119231    0.219005
O       1.784520   -2.961203   -0.110817
H       0.627999    1.911397   -0.373623
H      -0.999012    1.712825   -0.087703
H      -1.211043   -2.821080    0.021960
H       3.775627   -2.418917   -0.407355
H       3.148326   -2.259546    1.289279
