15

N      -0.161602    1.078816    0.462891
C      -0.126019   -0.070412   -0.039761
O       0.986474   -0.894951   -0.098976
C       0.681240   -1.979969   -0.945755
C      -0.420915   -3.001073   -0.589185
C      -1.252947   -2.776788    0.629661
C      -1.732631   -1.534757    0.607080
N      -1.272703   -0.781909   -0.561836
C      -0.692993   -1.798241   -1.471230
H       0.753876    1.332930    0.833877
H       1.523825   -2.297179   -1.546217
H      -0.298765   -3.991175   -1.012346
H      -1.434935   -3.520941    1.391983
H      -2.307523   -0.997095    1.346816
H      -1.002647   -1.794152   -2.509059
