14

N       0.157716    1.382665    0.135770
C      -0.012191   -0.004654    0.028523
C      -1.146758   -0.795170   -0.013254
C      -0.718728   -2.146022   -0.029623
C       0.664729   -2.159591   -0.008975
N       1.075009   -0.829181    0.029204
C       1.587995   -3.218406   -0.026258
C       2.395115   -4.115555   -0.035666
H       0.688051    1.777823   -0.634369
H      -0.736135    1.854348    0.183237
H      -2.163161   -0.433887   -0.045489
H      -1.343002   -3.024452   -0.074501
H       2.026959   -0.530526    0.155283
H       3.094607   -4.913548   -0.047177
