20

C      -0.070004    1.431508   -0.147734
C       1.472026    1.519201    0.054903
O       2.081237    2.347517    1.012290
C       1.438807    2.492064    2.268214
C       1.247398    1.201593    3.069961
C       0.151471    0.256215    2.549676
C       0.471884   -0.455493    1.238133
C       1.455845    0.000678    0.233991
N      -0.036890   -0.069562   -0.099461
H      -0.714183    1.894181    0.603985
H      -0.395843    1.766109   -1.133832
H       1.960220    1.780141   -0.887143
H       2.086753    3.173988    2.827734
H       0.467409    2.998140    2.147816
H       2.204617    0.668913    3.117938
H       0.995754    1.495976    4.097317
H      -0.024946   -0.516038    3.305698
H      -0.797891    0.800396    2.465665
H       0.429078   -1.539700    1.316226
H       2.173222   -0.676229   -0.220631
