16

N      -0.226573    1.329705   -0.454225
C      -0.044752    0.160950    0.017285
N       1.164637   -0.314352    0.527114
C       1.603467   -1.579276    0.946637
N       1.017125   -2.673021    1.182614
C      -0.405972   -2.901756    1.085971
C      -1.342314   -1.687039    1.271164
C      -1.258662   -0.762644    0.080229
O      -2.085661   -0.737429   -0.794880
H       0.625784    1.895787   -0.423457
H       1.914791    0.360582    0.467292
H       2.686288   -1.553932    1.087737
H      -0.620288   -3.379909    0.119812
H      -0.663050   -3.645349    1.848518
H      -2.374896   -2.036474    1.344825
H      -1.075388   -1.161325    2.195128
