16

C      -0.035078    1.540537   -0.254741
C       1.497698    1.610479    0.087604
N       1.832377    2.332107    1.329615
C       1.761826    1.486160    2.274465
N       1.448824    0.125939    1.940009
C       0.105303   -0.253490    2.273200
N      -0.735495   -0.364614    1.327654
C      -0.030201    0.005914    0.086437
C       1.467785    0.108970    0.447628
H      -0.671312    2.145900    0.392667
H      -0.267060    1.762194   -1.298553
H       2.141533    1.929893   -0.731399
H       1.907735    1.737503    3.320654
H      -0.139362   -0.412315    3.319090
H      -0.317141   -0.652152   -0.733277
H       2.204952   -0.592691    0.055680
