20

C      -0.079888    1.607289    0.011628
C       0.016271    0.079933    0.002541
C      -1.356036   -0.594442    0.011757
C      -1.299962   -2.113496    0.003050
O      -0.257834   -2.728706   -0.010144
C      -2.643783   -2.838222    0.011906
C      -2.469481   -4.364813    0.001985
C      -3.751509   -5.063634    0.010411
N      -4.774426   -5.601267    0.017241
H       0.914253    2.063825    0.004790
H      -0.622161    1.979074   -0.865061
H      -0.605654    1.969600    0.902228
H       0.573470   -0.259362   -0.877079
H       0.589786   -0.268713    0.867904
H      -1.941101   -0.283498    0.889672
H      -1.957377   -0.274146   -0.851681
H      -3.214953   -2.518811    0.891955
H      -3.231550   -2.509363   -0.853615
H      -1.896529   -4.670244   -0.878721
H      -1.879885   -4.679693    0.868263
