20

C      -0.135281    1.530866    0.046905
C       0.018051    0.004756    0.056299
C       0.681500   -0.496969   -1.243836
C       0.919411   -1.995435   -1.238803
O       0.568120   -2.713323   -2.146260
C       1.648171   -2.571610   -0.022240
C       1.603710   -1.711309    1.227030
N       2.270941   -0.397071    1.155850
C       0.802508   -0.460848    1.270969
H       0.847602    2.012273    0.010220
H      -0.711271    1.864826   -0.821822
H      -0.651486    1.882103    0.946930
H      -0.983134   -0.444367    0.126409
H       0.078069   -0.247212   -2.119626
H       1.658115   -0.006104   -1.339320
H       1.218744   -3.559244    0.171865
H       2.692299   -2.740124   -0.318996
H       1.708465   -2.262696    2.158928
H       2.690272   -0.163769    2.050992
H       0.363264   -0.185655    2.228785
