18

O       0.133693    1.369259    0.656022
C       0.123169    0.032917    0.271409
C      -0.651975   -0.979788    1.069262
C      -1.156730   -0.538856   -0.301916
N      -2.237072    0.393884   -0.313880
C      -3.204698    0.242283   -1.093852
C      -4.468438    1.012130   -1.405650
C      -4.708361   -0.129070   -2.416296
O      -3.458250   -0.765528   -2.006535
H      -0.768993    1.688947    0.507936
H       1.063807   -0.271416   -0.178095
H      -0.271849   -1.991595    1.161166
H      -1.199588   -0.607614    1.927691
H      -1.101120   -1.254282   -1.117620
H      -5.180527    1.078438   -0.581319
H      -4.310593    2.004743   -1.830706
H      -5.560585   -0.782840   -2.217879
H      -4.677409    0.145441   -3.473114
