10

O      -0.108817   -0.009673   -0.001161
C      -0.012051    1.186465    0.006804
C       1.284214    1.915629   -0.001294
N       2.447355    1.343135   -0.017901
O       3.375304    2.387265   -0.019724
C       2.735325    3.615380   -0.003617
O       3.274007    4.679405   -0.001364
N       1.389076    3.283568    0.007763
H      -0.898953    1.856509    0.021400
H       0.649972    3.965850    0.020795
