13

N      -0.081457    1.322647   -0.072855
C       0.063841   -0.031692    0.032943
O       1.155382   -0.563442    0.110652
C      -1.244745   -0.813041    0.035933
C      -1.014035   -2.316091   -0.021204
O      -2.292283   -2.935833    0.014673
H       0.743375    1.895521   -0.002706
H      -0.982030    1.767821   -0.053738
H      -1.810819   -0.567758    0.943513
H      -1.870257   -0.501106   -0.808848
H      -0.463869   -2.570342   -0.938233
H      -0.385610   -2.621569    0.825823
H      -2.159907   -3.887793   -0.006318
