15

O      -0.148983    1.331364   -0.099732
C       0.081976   -0.029749    0.028542
C       1.261616   -0.678817   -0.800082
N       1.024386   -2.106837   -0.469832
C       0.397559   -2.006005    0.636263
C       0.323999   -0.699948    1.443763
C      -1.179327   -1.011746    1.592426
C      -1.307692   -0.784581    0.124078
N      -1.056410   -2.197686    0.714418
H       0.695850    1.793136   -0.051272
H       1.193269   -0.561124   -1.886644
H       2.218758   -0.237560   -0.471267
H       1.048694   -0.325023    2.159539
H      -1.888271   -0.932350    2.403656
H      -2.175938   -0.652194   -0.509391
