20

C       0.510889    0.780690    0.668816
N      -0.300811   -0.258434    0.041425
C      -1.363092   -0.785376    0.720528
O      -1.714086   -0.466022    1.837611
C      -0.009512   -0.671326   -1.311169
C      -0.766683    0.100551   -2.382421
O      -0.550006    1.501884   -2.325014
C       1.395045   -1.131023   -1.610935
C       0.271062   -2.133323   -1.577096
H       1.459869    0.378188    1.042699
H       0.728352    1.567138   -0.056268
H      -0.050513    1.181357    1.513406
H      -1.884430   -1.557754    0.123395
H      -0.428365   -0.225166   -3.371958
H      -1.839740   -0.132619   -2.307495
H      -1.089914    1.852367   -1.609941
H       1.817051   -0.849798   -2.569173
H       2.107767   -1.151231   -0.795003
H       0.229712   -2.813742   -0.735103
H      -0.083395   -2.553693   -2.512266
