13

N       0.100265   -6.269886   -0.050007
C       0.079472   -5.106275   -0.037342
C       0.056010   -3.748047   -0.021601
C       0.035642   -2.531560   -0.006392
C       0.015047   -1.183108    0.012254
C       0.000227    0.031414    0.039550
C      -0.012482    1.458421    0.040113
C       0.511410    2.199634    1.234857
N       1.266292    2.212365   -0.014185
H      -0.809384    1.915441   -0.540748
H       0.040575    3.141643    1.499523
H       0.873917    1.608517    2.070281
H       2.044783    1.559123    0.039137
