23

C      -0.194821    1.566081   -0.029411
C      -0.211460    0.040843   -0.159016
C       0.933486   -0.500869   -1.025443
C       0.926810   -2.010359   -1.149757
C       0.071843   -2.694693   -2.197948
C       1.565180   -2.696755   -2.319062
C       2.443354   -2.109579   -3.421077
O       3.318324   -3.257951   -3.363091
C       2.525353   -3.881704   -2.328797
H       0.741285    1.915134    0.420613
H      -0.288779    2.048338   -1.008953
H      -1.018296    1.923074    0.596838
H      -0.152369   -0.413320    0.838877
H      -1.168411   -0.286482   -0.584339
H       0.872790   -0.052887   -2.026907
H       1.893514   -0.170162   -0.604792
H       1.012558   -2.538430   -0.200810
H      -0.424999   -3.625669   -1.942464
H      -0.489170   -2.064476   -2.883165
H       1.971259   -2.003520   -4.407056
H       2.972802   -1.178978   -3.176309
H       3.103521   -4.042114   -1.408494
H       2.102837   -4.840807   -2.658295
