20

C      -0.357500    1.607353    0.375899
C      -0.103465    0.112793    0.231564
C       0.178652   -0.447174   -1.169684
C       1.486706    0.029213   -1.710625
C       1.507969   -0.996920   -0.598387
C       2.030499   -2.363092   -0.778557
O       2.282706   -2.866425   -1.849258
N       1.199604   -0.461263    0.719532
C       2.191948    0.374635    1.374164
H       0.393962    2.213870   -0.136419
H      -1.334849    1.851868   -0.052613
H      -0.374773    1.903992    1.429649
H      -0.924725   -0.433665    0.710593
H      -0.523489   -1.009849   -1.771118
H       1.757082   -0.375926   -2.679732
H       1.846976    1.033556   -1.511160
H       2.151248   -2.919437    0.177505
H       2.519736    1.251499    0.791920
H       1.801979    0.729175    2.333180
H       3.077066   -0.234983    1.583704
