15

N      -0.025989    1.303187    0.145778
C       0.001854   -0.072166    0.054993
N      -1.110233   -0.812044    0.037150
N      -0.570365   -2.060969    0.014632
C      -1.052107   -3.377399   -0.016375
C      -0.003632   -4.214484   -0.039155
C       1.296443   -3.417041   -0.022068
C       0.776509   -2.010746    0.011621
N       1.193494   -0.759813    0.035678
H       0.799932    1.741493   -0.233906
H      -0.885078    1.717686   -0.184413
H      -2.113921   -3.567779   -0.017905
H      -0.053380   -5.291783   -0.063244
H       1.915826   -3.649990    0.851941
H       1.914464   -3.609315   -0.906841
