16

N       0.225868    1.261918   -0.171484
C      -0.001382   -0.085710   -0.049700
N      -1.060605   -0.682797    0.396723
C      -0.701461   -2.031091    0.391302
C       0.557122   -2.180365   -0.078538
O       1.030823   -0.903460   -0.367755
C       1.450269   -3.313549   -0.316919
C       2.507003   -3.261692   -1.365548
N       2.882577   -3.250337    0.055693
H       0.848410    1.522386   -0.922549
H      -0.627154    1.801331   -0.152456
H      -1.385052   -2.797235    0.721463
H       0.984689   -4.269823   -0.095412
H       2.772654   -4.166928   -1.904520
H       2.598142   -2.342951   -1.937500
H       3.106443   -2.298424    0.338293
