16

O      -0.764675    0.885333   -0.189010
C       0.383547    0.746091    0.152346
C       1.479722    1.738524   -0.139901
N       2.603742    1.281452   -1.107090
C       1.571231    1.554431   -2.220722
C       1.366923    2.780629   -1.283008
C       2.907921    2.794888   -1.220013
C       0.407604    3.923180   -1.418196
O       0.758879    5.069869   -1.548309
H       0.711203   -0.136256    0.745249
H       1.895638    2.093968    0.812310
H       2.031819    1.747218   -3.191775
H       0.775387    0.813844   -2.294236
H       3.385116    3.213547   -0.331449
H       3.451225    3.052598   -2.130730
H      -0.665504    3.636199   -1.389980
