16

N       0.117020    1.148685    0.642075
C      -0.024264    0.008354    0.119695
O      -1.066800   -0.768808    0.466644
C      -1.089609   -2.090390   -0.085090
C      -2.481916   -2.622611    0.005281
N      -2.690034   -3.865895    0.433594
N      -4.023013   -4.025981    0.354598
C      -4.666356   -2.921697   -0.097651
C      -3.692612   -1.979561   -0.341828
H       0.939180    1.606855    0.254537
H       0.633198   -0.448292   -0.634356
H      -0.752551   -2.052229   -1.130938
H      -0.413080   -2.750987    0.468655
H      -4.425220   -4.902135    0.640962
H      -5.739413   -2.893339   -0.202143
H      -3.827710   -0.971980   -0.697699
