14

N       0.046756    1.311729    0.339817
C      -0.026122   -0.011267    0.012406
C      -1.247266   -0.634653   -0.149968
C      -1.503820   -2.047426   -0.258655
O      -2.574252   -2.532200   -0.605438
C      -0.454272   -2.971948    0.287708
N       0.824522   -2.880955    0.261347
C       1.516051   -1.795841   -0.214434
N       1.222430   -0.542047   -0.229135
H       0.915859    1.778211    0.137957
H      -0.790002    1.869625    0.345334
H      -2.139539   -0.013984   -0.174516
H      -0.880318   -3.868163    0.746122
H       2.524004   -2.048547   -0.543197
