19

C       0.017305    1.573959   -0.111697
C       1.534762    1.830212   -0.000516
O       1.975861    1.963038    1.355125
C       1.809458    0.829477    2.196019
C       0.371503    0.325624    2.374557
O      -0.176541   -0.466818    1.331073
C      -0.088536    0.041875   -0.007382
C       1.217208   -0.398745   -0.656101
C       2.106354    0.593457   -0.669136
H      -0.566083    2.117771    0.632946
H      -0.327543    1.881848   -1.103477
H       1.840813    2.768242   -0.470387
H       2.445861   -0.007036    1.877889
H       2.163047    1.167117    3.176435
H       0.359446   -0.332953    3.250356
H      -0.278056    1.184418    2.602647
H      -0.971865   -0.356461   -0.515137
H       1.384297   -1.418274   -0.984392
H       3.136653    0.529994   -1.000275
