21

C       0.011523    1.515810   -0.066413
C      -0.018621   -0.010347    0.003585
C      -1.472914   -0.510256    0.048361
O       0.610579   -0.452765   -1.219877
C       1.021585   -1.789038   -1.199336
O       2.094612   -2.005355   -0.314637
C       1.784790   -1.630451    0.999702
C       2.223693   -0.259230    1.431349
C       0.754189   -0.545179    1.210819
H       1.040167    1.875904   -0.135507
H      -0.535403    1.863337   -0.947937
H      -0.450852    1.949796    0.825293
H      -1.997911   -0.207725   -0.861618
H      -1.528624   -1.599106    0.135241
H      -1.997205   -0.083409    0.909143
H       0.182656   -2.457850   -0.945416
H       1.393312   -2.022589   -2.199248
H       1.840176   -2.458903    1.701891
H       2.570042   -0.106973    2.447576
H       2.746835    0.313807    0.673834
H       0.150314   -0.635242    2.108638
