20

C       0.354494    1.768673    0.182541
C       0.122904    0.301972   -0.114410
C       1.145544   -0.448348   -1.004017
C       1.660049   -1.168753    0.256254
N       0.503441   -0.599767    1.089072
H       0.824012   -0.052304    1.885719
C      -0.528587   -1.581701    1.525652
C       0.408620   -1.445642   -1.991308
O       0.636610   -1.289710   -3.188183
O      -0.336804   -2.254360   -1.374583
H       1.388168    1.966844    0.487366
H       0.167578    2.341061   -0.730414
H      -0.324410    2.143791    0.957255
H      -0.914714    0.090611   -0.375162
H       1.864942    0.190296   -1.514957
H       1.589377   -2.254505    0.218249
H       2.610487   -0.836685    0.677979
H      -0.090055   -2.235592    2.282813
H      -1.373907   -1.033400    1.947840
H      -0.805003   -2.133703    0.619439
