20

C      -0.240137    1.495982    0.329137
N      -0.281585    0.040946    0.293709
C       0.610156   -0.610253    0.878369
C       0.908148   -2.079700    1.065388
C       2.144208   -1.578281    1.849605
C       2.195986   -1.872231    3.335406
C       3.484640   -1.766427    1.145074
O       4.463389   -0.885309    1.656352
O       1.710088   -0.177497    1.611016
H       0.619014    1.908450    0.871184
H      -0.225442    1.878279   -0.697416
H      -1.159304    1.868983    0.794314
H       0.168204   -2.622552    1.656368
H       1.114264   -2.631039    0.145256
H       2.370332   -2.940810    3.500466
H       3.014305   -1.316572    3.799429
H       1.255620   -1.594897    3.818784
H       3.854108   -2.784733    1.308848
H       3.343979   -1.628266    0.061675
H       4.106695    0.005069    1.549758
