14

O       0.027792    1.445440    0.213030
C      -0.018898    0.048504    0.047474
C      -1.429044   -0.501304   -0.045136
C      -2.265055   -0.114595   -1.195869
N      -1.560751   -1.432367   -1.209749
C      -0.352477   -1.389623   -1.962790
O      -0.136353   -1.991077   -2.973188
C       0.616950   -0.391042   -1.271723
O       1.627910    0.055033   -1.739492
H       0.892088    1.732671   -0.112833
H       0.513040   -0.474338    0.862037
H      -1.905574   -0.858509    0.861079
H      -3.344533   -0.198311   -1.139232
H      -1.898802    0.665314   -1.858612
