17

O      -0.253535    1.457692    0.012374
C      -0.013329    0.058072    0.002643
C      -1.372909   -0.625384    0.011669
C      -1.275527   -2.138762    0.002673
O      -0.216203   -2.732062   -0.010849
C      -2.544391   -2.840699    0.011333
C      -3.606728   -3.413241    0.018565
C      -4.900304   -4.080182    0.027113
O      -4.720931   -5.486360    0.017422
H       0.597603    1.904865    0.006277
H       0.550462   -0.253832   -0.887869
H       0.566936   -0.263272    0.879116
H      -1.949794   -0.313296    0.891783
H      -1.966003   -0.304047   -0.854237
H      -5.456520   -3.745717    0.918637
H      -5.473452   -3.735699   -0.849776
H      -5.594961   -5.890017    0.025310
