18

N      -0.097308    1.430083   -0.026084
C      -0.035037   -0.033339    0.080433
C       0.705346   -0.377847    1.381283
O       1.995531    0.194462    1.405496
C      -1.420916   -0.670973   -0.061550
C      -1.526512   -0.926782   -1.572887
O      -0.169955   -1.101923   -2.037924
C       0.711666   -0.646389   -1.120618
O       1.904087   -0.710376   -1.287615
H       0.829049    1.793389    0.186383
H      -0.330770    1.730441   -0.968223
H       0.151768    0.043955    2.226413
H       0.738077   -1.472044    1.501104
H       2.450951   -0.135571    0.615249
H      -1.457434   -1.621410    0.480915
H      -2.209619   -0.018792    0.315365
H      -2.080043   -1.830968   -1.832287
H      -1.967589   -0.081450   -2.112480
