16

C      -0.065018    1.396674   -0.069598
O       0.006600   -0.013218    0.004588
C       0.643456   -0.569321    1.071646
C       1.236048    0.156202    2.107760
C       1.862437   -0.525570    3.152665
C       1.905101   -1.914041    3.177255
C       1.310070   -2.631194    2.137286
C       0.683998   -1.968750    1.092233
H       0.932574    1.852463   -0.118218
H      -0.607880    1.625687   -0.988239
H      -0.608177    1.821716    0.784581
H       1.216580    1.238333    2.112145
H       2.320104    0.046803    3.953284
H       2.393956   -2.434392    3.993138
H       1.334099   -3.716184    2.140613
H       0.216747   -2.508607    0.276385
