23

C       0.047462    1.591203   -0.445551
C       0.103146    0.066400   -0.333409
C       1.292730   -0.847966   -0.796641
C       2.096515   -0.444916    0.482096
C       2.887290    0.859149    0.596425
C       0.610751   -0.670983    0.948576
C       0.673084   -1.979156    0.094023
C      -0.558606   -2.768556   -0.304945
O      -0.144960   -3.694468   -1.306035
H       0.302488    1.925961   -1.457943
H      -0.975305    1.929791   -0.246652
H       0.694759    2.117094    0.255013
H      -0.855649   -0.310333   -0.695262
H       1.681847   -0.961791   -1.810550
H       2.740012   -1.256916    0.840080
H       2.799204    1.296975    1.597631
H       3.949611    0.648123    0.433432
H       2.602872    1.619597   -0.129852
H       0.221359   -0.573115    1.965790
H       1.420553   -2.698092    0.445447
H      -0.938707   -3.296252    0.585834
H      -1.375561   -2.135279   -0.674884
H      -0.901489   -4.241420   -1.536742
