12

C      -0.004279    1.543546    0.081013
C       0.015703    0.058036   -0.012336
C      -0.008903   -0.808459   -1.092298
N       0.027350   -2.103568   -0.636602
N       0.072670   -2.087175    0.653648
N       0.065990   -0.787702    1.039143
C      -0.062754   -0.463048   -2.465816
N      -0.106986   -0.137752   -3.575831
H       0.892665    1.925231    0.579905
H      -0.045079    1.974400   -0.921038
H      -0.876756    1.897609    0.640052
H       0.097289   -0.568242    2.023171
