18

N       0.013044   -1.163939   -0.147298
C       0.022665   -0.023198    0.033832
C       0.026541    1.425661    0.237739
C       1.394149    2.040092    0.019176
C       2.235220    1.919150   -1.277196
C       3.043119    3.044319   -0.554490
C       1.664496    3.566566   -0.036916
C       3.521861    2.274454    0.681671
O       2.298973    1.589064    1.041993
H      -0.695738    1.878653   -0.449193
H      -0.306547    1.643083    1.258720
H       2.722819    0.959751   -1.461859
H       1.715276    2.276038   -2.167669
H       3.758267    3.682361   -1.070278
H       1.092119    4.083653   -0.808907
H       1.634430    4.111218    0.910015
H       4.311027    1.545769    0.465991
H       3.844179    2.920783    1.505821
