15

C      -0.072220    1.450053    0.120669
N      -0.056772   -0.003475    0.211815
C      -1.096149   -0.645691   -0.028739
O      -2.368667   -0.227481   -0.388576
C      -2.842784   -1.597655   -0.506141
C      -1.460394   -2.132617   -0.035727
C      -0.728176   -3.011555   -0.921832
C      -0.137897   -3.744195   -1.668750
H       0.714600    1.769685   -0.570642
H      -1.028702    1.868476   -0.213148
H       0.172992    1.871593    1.101586
H      -3.684371   -1.785747    0.164029
H      -3.102884   -1.841124   -1.537985
H      -1.490779   -2.539909    0.979728
H       0.396619   -4.385465   -2.325152
