23

C      -0.055989    1.572542    0.009286
C       0.015455    0.038056    0.003253
C       0.682690   -0.500200   -1.271763
C       0.985333   -1.995963   -1.155255
C       1.974390   -2.276353   -0.014715
C       2.049519   -3.775560    0.301851
O       3.258737   -1.836784   -0.504674
C       1.593057   -1.491617    1.223164
C       0.724399   -0.481571    1.230572
H       0.948316    2.009659   -0.009070
H      -0.599016    1.939788   -0.867731
H      -0.568400    1.945623    0.902581
H      -1.021195   -0.336858    0.036767
H       0.044872   -0.301296   -2.140036
H       1.627363    0.031775   -1.434098
H       0.059840   -2.554964   -0.969986
H       1.418420   -2.379915   -2.084702
H       2.344124   -4.333722   -0.591821
H       2.795400   -3.966344    1.082171
H       1.086560   -4.158027    0.655925
H       3.841270   -1.726265    0.254097
H       2.070835   -1.801947    2.152426
H       0.495817    0.019583    2.170357
