18

O       0.223033    0.921918    0.872732
C      -0.030470    0.071611   -0.248875
C      -1.421171   -0.459808   -0.165045
C      -1.842833   -1.743837    0.107872
C      -1.721330   -3.222313    0.445241
C      -3.300025   -3.211679    0.431799
N      -3.200598   -1.782705    0.098963
C      -3.731295   -0.549192   -0.164149
C      -2.639071    0.284726   -0.335154
H       1.086487    1.326286    0.738617
H       0.102553    0.634538   -1.186768
H       0.681397   -0.768577   -0.273708
H      -1.267586   -3.860834   -0.317595
H      -1.280392   -3.461537    1.416498
H      -3.770856   -3.819032   -0.346738
H      -3.778787   -3.411045    1.394832
H      -4.790267   -0.356848   -0.215766
H      -2.693626    1.340725   -0.557206
