17

N       0.050489   -1.173003   -0.446065
C      -0.008259   -0.070541   -0.105675
C      -0.073444    1.329408    0.315062
C       1.304589    2.005324    0.204301
C       1.683512    3.397339   -0.133656
C       0.891843    4.564505    0.479994
C      -0.270260    4.140700    1.331604
C       1.137870    3.917048    1.821758
N       1.995095    2.810256    1.233466
H      -0.822064    1.829379   -0.306961
H      -0.433621    1.355287    1.347634
H       2.039851    1.305651   -0.189207
H       2.490754    3.591031   -0.834512
H       1.058312    5.587375    0.171566
H      -0.740531    4.976578    1.843222
H      -0.975290    3.371922    1.056778
H       1.498098    4.336822    2.751447
