18

C       0.744982   -0.275396    1.397924
C       0.087564   -0.107662    0.027457
C      -1.356895   -0.653050   -0.032867
C      -2.044718   -0.325994   -1.392444
C      -2.205014    1.103613   -1.624815
C      -2.340333    2.286073   -1.794914
C      -1.402891   -2.094860    0.201553
C      -1.436378   -3.286133    0.362391
H       1.765998    0.117632    1.390285
H       0.187207    0.262679    2.172569
H       0.789000   -1.329245    1.688276
H       0.053255    0.952008   -0.246369
H       0.683900   -0.616816   -0.739477
H      -1.940186   -0.156056    0.754207
H      -1.456299   -0.775194   -2.201886
H      -3.025035   -0.814504   -1.417654
H      -2.463531    3.327890   -1.958833
H      -1.469862   -4.335713    0.520281
