15

C       0.085579    1.353601   -0.123315
N      -0.177540   -0.045853    0.142585
C       0.555972   -0.658920    1.146859
C       1.266059   -0.097371    2.176670
N       1.742926   -1.195593    2.914412
C       1.309122   -2.300629    2.278358
O       1.624159   -3.519818    2.750099
N       0.593466   -2.042665    1.213810
H       1.146834    1.571755   -0.329685
H      -0.512990    1.678927   -0.977245
H      -0.215757    1.957164    0.740955
H      -0.234573   -0.627973   -0.680829
H       1.470420    0.916051    2.469318
H       2.306625   -1.173819    3.745459
H       1.204082   -4.153029    2.155047
