18

C      -0.473604    1.250711    0.194413
C       0.398537    0.013524    0.175855
C       0.855381   -0.548074   -1.188761
C       2.285046   -0.341279   -0.634760
O       1.775508    0.302790    0.548607
C       3.052626   -1.603373   -0.325527
C       3.555024   -1.882984    1.023751
O       2.391555   -2.547746    0.516069
H      -0.077671    2.017835   -0.478540
H      -1.493414    1.002015   -0.119680
H      -0.521295    1.670700    1.204168
H      -0.009506   -0.759373    0.838393
H       0.576153   -1.580383   -1.401625
H       0.604498    0.088445   -2.039549
H       2.928300    0.334547   -1.214967
H       3.570032   -2.043212   -1.181196
H       4.432999   -2.513778    1.153334
H       3.357916   -1.156845    1.807591
