15

O       0.004414   -0.020027    0.059075
C      -0.013637    1.167193   -0.002299
C      -1.053008    2.312287    0.028817
N      -0.026909    2.938239    0.945245
C       0.992501    2.341997    0.001935
C       0.703212    3.007967   -1.365524
C      -0.060500    2.219635   -2.405212
C      -0.819209    2.985850   -1.345519
H      -2.069842    2.200763    0.400029
H      -0.042555    3.957550    0.881279
H       2.021547    2.260190    0.346260
H       1.280499    3.876971   -1.659655
H      -0.079726    2.636601   -3.407463
H      -0.044490    1.134734   -2.386288
H      -1.429018    3.837609   -1.624053
