17

C      -0.521034    0.277002    0.083561
O       0.211492    0.288846    1.291351
C       1.444514   -0.379255    1.204487
C       1.325578   -1.888615    1.069051
N       1.995416   -2.525710    0.208211
O       0.445043   -2.367948    2.005156
C       0.115908   -3.742330    1.969491
C       1.185361   -4.612330    2.484978
N       2.014084   -5.307736    2.889498
H      -0.811218   -0.740815   -0.216572
H      -1.425930    0.864080    0.254509
H       0.050678    0.728666   -0.740956
H       2.052382   -0.029402    0.360157
H       1.976435   -0.159636    2.136778
H       1.905007   -3.539425    0.259639
H      -0.767452   -3.854494    2.602864
H      -0.146745   -4.062881    0.953118
