14

C      -0.141157    1.393601    0.137754
C      -0.092718   -0.086142    0.039769
C      -1.013908   -1.023357   -0.324152
O      -2.292076   -0.778838   -0.766112
C      -3.322243   -1.234586    0.009596
O      -4.457578   -1.105721   -0.316961
C      -0.329217   -2.263689   -0.228301
N       0.905087   -2.093900    0.172330
O       1.056099   -0.716009    0.336056
H       0.597193    1.853433   -0.526719
H      -1.134578    1.745964   -0.146389
H       0.075015    1.727157    1.157660
H      -2.962760   -1.713808    0.937819
H      -0.694729   -3.258602   -0.439374
