11

N       0.028360    1.353847    0.152073
C       0.011929    0.003296    0.036293
N      -1.051585   -0.759050   -0.012159
O      -0.570853   -2.121479   -0.039576
C       0.754904   -2.055281   -0.027918
N       1.790784   -2.859149   -0.051926
N       2.855693   -1.994887   -0.017965
N       2.519063   -0.743673    0.026517
N       1.151630   -0.773007    0.021643
H       0.845213    1.825042   -0.206593
H      -0.850830    1.815077   -0.027835
