21

C       0.050363    1.546395    0.125071
C      -0.057281    0.025226   -0.020359
C       0.646219   -0.530831   -1.261035
C       0.634206   -2.078263   -1.344023
C       0.991546   -2.358196   -2.806903
O       0.688122   -3.637799   -3.284296
C       0.215643   -1.267762   -3.544540
O      -0.237041   -1.421275   -4.652930
C       0.030516   -0.078791   -2.610009
H       1.097324    1.864653    0.182993
H      -0.407294    2.066165   -0.723218
H      -0.452347    1.891838    1.033394
H       0.367177   -0.455998    0.870013
H      -1.115060   -0.269948   -0.050532
H       1.694977   -0.203681   -1.235669
H       1.320711   -2.545225   -0.634072
H      -0.372675   -2.467307   -1.145260
H       2.066003   -2.127189   -2.950279
H       0.303736   -3.501372   -4.163731
H      -1.047791    0.106561   -2.520798
H       0.469126    0.829783   -3.031969
