16

O      -0.003241    0.025215    0.186070
C      -0.003626    1.216572    0.026013
C      -1.261459    2.093835   -0.169425
N      -0.829461    3.373610   -0.752268
C       0.597952    3.481929   -0.530379
C       1.072332    3.359175    0.863656
C       1.193749    2.126109   -0.066411
C       2.474187    1.620969   -0.430485
C       3.555965    1.201005   -0.747550
H      -1.978375    1.577387   -0.810362
H      -1.748552    2.238630    0.803374
H      -0.996165    3.352954   -1.752126
H       1.142321    4.102598   -1.230875
H       2.021269    3.816452    1.114819
H       0.354314    3.320274    1.675899
H       4.507259    0.818793   -1.023253
