16

O      -0.417517    0.318367    0.497583
C       0.030347    1.005471   -0.382423
C       1.380357    1.683726   -0.353444
C       1.280068    3.173364   -0.714196
C       2.620166    3.786574   -0.947326
N       3.752166    3.199770   -1.175682
C       4.658862    4.240187   -1.347384
C       4.010079    5.417322   -1.208801
O       2.694848    5.142624   -0.948735
H      -0.548742    1.181956   -1.321135
H       1.837671    1.534808    0.627244
H       2.021271    1.189672   -1.095778
H       0.668562    3.299629   -1.619271
H       0.766114    3.732141    0.075795
H       5.701508    4.058150   -1.552696
H       4.286780    6.456367   -1.250055
