18

O      -0.054004   -0.075605    0.129550
C      -0.009022    1.140485    0.066983
C      -1.299895    1.976720   -0.005919
C      -1.131060    3.349075    0.612493
C      -2.316163    4.199517    0.953147
C      -1.504350    3.566038    2.065617
N       0.048300    4.006572    0.102655
C       1.186052    3.272545   -0.051967
C       1.217951    1.915557   -0.033640
H      -1.560410    2.076880   -1.069411
H      -2.106490    1.423139    0.478771
H      -2.229657    5.272992    0.811782
H      -3.303390    3.806465    0.736661
H      -1.935928    2.733788    2.610971
H      -0.871450    4.215267    2.660937
H       0.142682    4.994285    0.273748
H       2.087339    3.857118   -0.212848
H       2.154469    1.386994   -0.153908
