14

N       0.051592    1.428745    0.162339
C       0.020165    0.029104    0.044980
C      -1.085712   -0.807385    0.012306
N      -0.691504   -2.142123   -0.016985
C       0.676777   -2.166118   -0.010175
C       1.124354   -0.861839    0.031525
O       2.470819   -0.824088    0.031656
N       2.925985   -2.158524   -0.011911
C       1.860971   -2.935219   -0.035689
H       0.849362    1.832827   -0.312093
H      -0.792396    1.866541   -0.184152
H      -2.132584   -0.546882    0.017011
H      -1.315403   -2.926641   -0.042554
H       2.009104   -4.004870   -0.069594
