18

O       0.000449   -0.010203   -0.317431
C      -0.002000    1.166185   -0.049591
C      -1.280703    1.950604    0.259762
C      -1.018146    3.423785    0.519164
C       0.089524    4.121961   -0.191341
C       1.057857    3.221905   -0.941389
C       1.231921    2.037969    0.043698
C       1.169011    2.769945    1.412649
N       0.185800    3.856555    1.263135
H      -1.978024    1.824448   -0.576788
H      -1.764713    1.479751    1.124379
H      -1.899461    4.003815    0.780531
H      -0.011900    5.159977   -0.492305
H       0.686272    2.908186   -1.922417
H       2.014514    3.731682   -1.097190
H       2.133381    1.445876   -0.116609
H       0.890741    2.109752    2.240665
H       2.139218    3.216664    1.653324
