17

C      -0.022028    1.465177    0.045208
C      -0.001595   -0.019775   -0.026723
C       0.008196   -0.889501   -1.041031
C       0.014295   -2.235427   -0.299372
O      -0.972428   -2.001577    0.763015
C       0.000369   -0.991128    1.180044
C       1.136582   -1.995817    0.775105
C       1.344293   -3.134007    1.741017
O       2.434643   -3.528471    2.074976
H       0.848348    1.850157    0.591477
H      -0.020707    1.912962   -0.952013
H      -0.910586    1.823977    0.579573
H       0.004293   -0.732293   -2.109358
H      -0.111047   -3.172374   -0.840077
H      -0.138339   -0.611531    2.192489
H       2.092344   -1.590876    0.439423
H       0.411615   -3.592663    2.129365
