18

C      -0.043634    1.366889    0.161100
C      -0.089179   -0.138711   -0.026810
O      -0.089196   -0.913152    0.899563
C      -0.104340   -0.629993   -1.481414
C       1.361466   -0.742827   -2.018635
C       1.445418   -2.208177   -2.492292
C       0.353744   -2.881395   -1.656349
O      -0.687752   -1.912648   -1.590439
H       0.712226    1.823009   -0.487971
H      -1.009813    1.798813   -0.126344
H       0.162518    1.608708    1.204314
H      -0.702361    0.059831   -2.089396
H       1.559207   -0.026175   -2.817914
H       2.084098   -0.554857   -1.218568
H       1.198601   -2.281108   -3.555625
H       2.435076   -2.645333   -2.339415
H      -0.060900   -3.783846   -2.113032
H       0.714039   -3.126261   -0.648053
