25

C       0.408126    1.543489    0.098249
C      -0.127484    0.121495   -0.108853
C       0.513198   -0.568617   -1.297030
C       1.825167   -1.309160   -1.169050
C       0.555790   -2.074260   -1.470023
C      -0.024473   -3.004777   -0.420954
C       0.385969   -2.577826   -2.885745
O       1.080794   -3.801426   -3.034908
C       0.917296   -4.371341   -4.309279
H       1.489162    1.534034    0.272266
H       0.221279    2.168665   -0.782008
H      -0.068941    2.026557    0.956814
H       0.042594   -0.463219    0.801521
H      -1.216263    0.159358   -0.248030
H       0.389948   -0.011440   -2.225087
H       2.568551   -1.207930   -1.952660
H       2.244992   -1.414808   -0.173023
H       0.200320   -2.673613    0.595430
H      -1.114827   -3.078521   -0.516498
H       0.390195   -4.008727   -0.548067
H      -0.685651   -2.726265   -3.112366
H       0.769116   -1.834732   -3.605843
H      -0.140557   -4.588451   -4.529965
H       1.301491   -3.713407   -5.105886
H       1.480073   -5.308118   -4.325915
