20

O      -0.108979    1.440869   -0.076983
C      -0.001173    0.032935   -0.033168
C      -1.368782   -0.628924    0.014647
O      -2.054162   -0.229271   -1.170275
C      -3.376980   -0.617372   -1.240537
C      -4.579777   -0.271663   -0.321803
N      -5.218560   -1.103172   -1.443833
C      -4.325973   -0.286475   -2.397195
C      -4.006414   -2.035543   -1.297647
H      -0.726610    1.634799   -0.791852
H       0.555153   -0.358049   -0.899972
H       0.562120   -0.221654    0.870622
H      -1.273534   -1.724099    0.057922
H      -1.920927   -0.288422    0.902029
H      -4.648122   -0.747694    0.659253
H      -4.927172    0.764069   -0.295300
H      -4.651491    0.749623   -2.517568
H      -4.155376   -0.774586   -3.359620
H      -3.818427   -2.647690   -2.183139
H      -4.031970   -2.636391   -0.385303
