15

C      -0.044329    1.359178    0.067577
O      -0.002879   -0.057015    0.008285
C       0.613268   -0.579468   -1.070192
C       1.220293    0.040917   -2.145532
N       1.672793   -0.982423   -2.930586
N       1.411776   -2.192904   -2.457345
C       0.756406   -1.977182   -1.306466
C       0.274369   -3.064206   -0.445822
O       0.408141   -4.245224   -0.667159
H       0.968423    1.782518    0.091854
H      -0.587510    1.773988   -0.791712
H      -0.568547    1.617944    0.988144
H       1.364854    1.073667   -2.411092
H       2.167866   -0.899968   -3.803609
H      -0.246689   -2.700705    0.465547
