20

N      -0.094141   -1.180411    0.034368
C      -0.070600   -0.025003    0.022716
C      -0.018291    1.436157    0.005801
C       1.419103    1.996390    0.007332
C       1.410612    3.525951   -0.144483
C       2.835856    4.083764   -0.022324
C       3.499811    3.558787    1.251587
O       3.488783    2.141387    1.298341
C       2.178851    1.612380    1.287314
H      -0.553497    1.789380   -0.883181
H      -0.571899    1.813568    0.874749
H       1.960994    1.560416   -0.841040
H       0.959810    3.814436   -1.101060
H       0.780114    3.960678    0.644952
H       3.432547    3.770182   -0.887188
H       2.824132    5.179372   -0.013132
H       4.550530    3.856928    1.305381
H       2.985672    3.968324    2.139161
H       1.613503    1.970460    2.167981
H       2.281120    0.527006    1.372190
