19

C      -0.083982    1.548796   -0.074147
C       0.023538    0.034885    0.025532
O       0.864391   -0.476152   -1.043206
C       1.853221   -1.187757   -0.353614
C       1.264492   -1.938772    0.872811
O       2.504752   -1.735869    1.625851
C       2.281028   -0.454624    0.949405
C       0.741296   -0.509867    1.260575
C       0.218577   -0.234019    2.646206
H       0.892385    2.022586    0.068611
H      -0.459755    1.833126   -1.060833
H      -0.774661    1.939847    0.679897
H      -0.973580   -0.416192   -0.078568
H       2.581112   -1.651760   -1.015192
H       0.766468   -2.905798    0.949851
H       3.001376    0.346270    1.117133
H       0.203594    0.839003    2.864089
H      -0.802475   -0.612685    2.768660
H       0.860173   -0.725755    3.382540
