18

C      -0.255050    1.372766    0.076174
N      -0.004313   -0.048667    0.003891
C       0.416414   -0.796507   -1.033293
N       0.519973   -2.063329   -0.682546
C       0.137621   -2.046287    0.630934
N      -0.189555   -0.843633    1.089852
C       0.088700   -3.250330    1.474127
C      -0.308346   -4.577981    0.858752
C       1.114843   -4.347770    1.270053
H      -0.045898    1.816836   -0.898843
H      -1.298568    1.559651    0.342655
H       0.389956    1.832841    0.829286
H       0.630299   -0.379692   -2.006705
H      -0.236328   -3.053989    2.488898
H      -0.924335   -5.241631    1.455260
H      -0.529617   -4.571589   -0.202108
H       1.843074   -4.187790    0.483599
H       1.491834   -4.850798    2.153532
