17

C       0.097797    1.611462    0.187614
C       0.026638    0.082555    0.108318
C       0.703614   -0.514460   -1.149850
O       1.558658   -1.555655   -0.628308
C       1.493938   -1.435194    0.720227
N       2.257633   -2.339538    1.394702
N       0.727555   -0.549492    1.239448
C      -1.439264   -0.349369    0.223149
O      -2.079177   -0.880132   -0.647729
H       1.143418    1.930320    0.226583
H      -0.382540    2.074685   -0.680912
H      -0.398155    1.972548    1.093474
H      -0.019270   -0.961134   -1.834856
H       1.327686    0.210976   -1.680356
H       3.059355   -2.700014    0.902718
H       2.394516   -2.135690    2.371323
H      -1.872234   -0.142026    1.225532
