16

C       0.015586    1.491894    0.130828
C       0.058186   -0.017232   -0.010360
O       0.688260   -0.549867    1.173546
C       0.814222   -1.888056    1.225412
O       0.438824   -2.639176    0.359595
C       1.493292   -2.323379    2.522480
N       1.676221   -3.755796    2.673400
H       1.024183    1.904148    0.224512
H      -0.457161    1.934041   -0.751197
H      -0.559087    1.785632    1.013702
H      -0.943015   -0.449814   -0.102618
H       0.631947   -0.331894   -0.887759
H       2.462330   -1.814099    2.582633
H       0.903372   -1.931398    3.359367
H       0.771655   -4.213022    2.595580
H       2.207411   -4.105060    1.880176
