17

C       0.178462    1.143125   -0.493345
N      -0.351326    0.358498    0.626392
C      -1.320031   -0.588634    0.335195
C      -1.311089   -1.886499   -0.071901
O      -0.173155   -2.583982   -0.358136
C      -2.669006   -2.352025   -0.132993
C      -3.424543   -1.274158    0.231383
N      -4.790334   -1.098177    0.410798
O      -2.657118   -0.210664    0.523451
H       0.900979    1.870652   -0.110320
H       0.668442    0.533776   -1.267418
H      -0.639897    1.697482   -0.961458
H       0.392596   -0.028577    1.192157
H      -0.409223   -3.502295   -0.514283
H      -3.022721   -3.333689   -0.407558
H      -5.350712   -1.635707   -0.236322
H      -5.051616   -0.120924    0.386925
