14

C       0.025670    1.515352   -0.062923
C      -0.055645    0.027089    0.112912
C      -1.308901   -0.746921   -0.265928
O      -1.262177   -1.980483    0.469106
C      -0.258803   -1.983493    1.394971
O      -0.143970   -2.833188    2.227213
C       0.598053   -0.765467    1.162352
O       1.110503   -0.746312   -0.184308
H       0.998480    1.882596    0.271072
H      -0.096362    1.785513   -1.117318
H      -0.758757    2.019713    0.509742
H      -2.219020   -0.205660    0.015414
H      -1.342306   -0.981079   -1.333903
H       1.244145   -0.386651    1.945826
