15

O      -0.122413    1.440514   -0.027612
C      -0.013658    0.050814   -0.042699
C      -0.394268   -0.732897    1.185342
C      -1.310767   -0.688951   -0.020565
C      -2.725875   -0.148980   -0.131907
O      -3.000277   -0.040301   -1.524873
C      -3.181973   -1.332103   -0.906549
C      -1.767153   -1.923832   -0.793645
O      -1.259289   -2.972615   -1.059500
H       0.638919    1.795306    0.444072
H       0.769546   -0.358057   -0.681263
H       0.108510   -1.673141    1.388365
H      -0.706215   -0.164209    2.055368
H      -3.286772    0.465462    0.559762
H      -4.151237   -1.807147   -0.994513
