17

C       0.080090    1.424021    0.018132
N      -0.031997   -0.020001    0.037647
C      -1.221747   -0.658205    0.015312
C      -2.483942   -0.149921    0.060113
C      -3.450204   -1.243414    0.067641
O      -4.653738   -1.213980    0.028458
N      -2.702646   -2.515792    0.116140
C      -2.005893   -2.793270   -1.147751
C      -1.292439   -2.150124   -0.001641
H       1.124189    1.706475    0.164492
H      -0.272804    1.856420   -0.927772
H      -0.511807    1.855097    0.832475
H       0.793318   -0.559885   -0.161222
H      -2.780116    0.887283    0.019884
H      -1.833419   -3.844580   -1.363122
H      -2.242363   -2.169945   -2.006718
H      -0.577748   -2.717123    0.589730
