15

N      -0.155331    1.342016   -0.274702
C      -0.096369   -0.028909   -0.040658
C      -0.926764   -1.044461   -0.467527
N      -0.409616   -2.153815    0.129998
C      -0.891987   -3.527705    0.095382
C      -1.098463   -4.029076   -1.258568
C      -1.292382   -4.447432   -2.366995
N       0.654101   -1.849936    0.881812
N       0.852977   -0.561299    0.777310
H       0.709189    1.789575    0.002580
H      -0.390229    1.585811   -1.227105
H      -1.782926   -1.080898   -1.117721
H      -0.135787   -4.114759    0.624287
H      -1.825843   -3.601424    0.666819
H      -1.450854   -4.822946   -3.348010
