17

O       0.105591    1.222014   -0.434056
C       0.011265   -0.139757   -0.045817
C      -1.454000   -0.461889    0.162816
C      -2.339307   -0.466554   -1.129222
C      -2.693186   -1.904742   -0.813218
C      -1.788000   -1.970614    0.401146
N      -3.501518   -2.693947   -1.384003
O      -3.529184   -3.942030   -0.728464
H       1.028844    1.424198   -0.611193
H       0.426024   -0.806094   -0.821404
H       0.569880   -0.333835    0.884751
H      -1.857759    0.190905    0.940242
H      -3.178147    0.233813   -1.139413
H      -1.770130   -0.330037   -2.054242
H      -0.939722   -2.654685    0.284300
H      -2.291965   -2.217537    1.339396
H      -4.176274   -4.428312   -1.250241
