19

C      -0.159933    1.592771   -0.020323
C      -0.037834    0.076265   -0.001202
C       1.181706   -0.595365   -0.671098
C       2.132334   -0.295843    0.543126
C       2.601359   -1.760085    0.650122
C       1.116583   -1.865487    0.274947
C       0.294106   -3.078538    0.058194
O       0.715235   -4.206585    0.155542
C       0.720758   -0.609429    1.157023
H       0.788950    2.081227    0.222670
H      -0.474814    1.947511   -1.007826
H      -0.906629    1.934339    0.704887
H      -1.000478   -0.387136   -0.247491
H       1.469172   -0.622343   -1.724266
H       2.712336    0.613939    0.696368
H       3.319198   -2.105813   -0.099002
H       2.879485   -2.119227    1.644945
H      -0.770830   -2.886981   -0.208719
H       0.474635   -0.652670    2.220077
