18

C      -0.060471    1.578000   -0.170605
C      -0.052405    0.062342    0.045786
O       0.641232   -0.313479    1.224195
C      -1.470510   -0.555585    0.026931
C      -1.366340   -2.107358    0.030035
C      -2.659672   -2.785196   -0.005850
N      -3.692639   -3.302328   -0.041731
C      -2.330940   -0.111081    1.201591
O      -1.906743    0.443071    2.188707
H       0.967607    1.948638   -0.161612
H      -0.511085    1.836494   -1.134914
H      -0.616040    2.090631    0.619180
H       0.512364   -0.397438   -0.775619
H       0.153549    0.086841    1.957501
H      -1.998621   -0.256463   -0.888395
H      -0.785485   -2.423037   -0.843262
H      -0.804368   -2.420000    0.915478
H      -3.410647   -0.350807    1.112514
