20

C      -0.109879    1.566448    0.038741
C       0.064849    0.053054   -0.002306
C       1.153905   -0.562881   -0.952858
C       1.767210   -1.264713    0.262445
O       2.230070   -2.571154    0.262537
C       2.183872   -0.258042    1.298458
C       0.723346   -0.665318    1.194595
C      -0.025034   -1.276103    2.343932
H       0.834690    2.080505    0.244968
H      -0.488079    1.942879   -0.918088
H      -0.823750    1.860765    0.816119
H      -0.903400   -0.415101   -0.211883
H       0.729616   -1.266454   -1.672623
H       1.800822    0.144733   -1.484753
H       3.174456   -2.559205    0.072203
H       2.695153   -0.689184    2.154267
H       2.530134    0.736041    1.023217
H      -0.384806   -0.512035    3.043721
H      -0.896374   -1.840667    1.992148
H       0.613053   -1.966506    2.904784
