23

C       0.092275    1.562249    0.150155
C      -0.031504    0.065441    0.006102
C      -1.189759   -0.610258   -0.055317
C      -2.561923    0.013811    0.009580
C      -1.217910   -2.126888   -0.189244
C      -0.501808   -2.701566   -1.420652
O       0.905496   -2.754849   -1.303345
C       1.556801   -1.500733   -1.311270
C       1.310304   -0.651971   -0.054975
H       0.650924    1.986704   -0.694879
H      -0.862724    2.084375    0.210545
H       0.667323    1.813272    1.051609
H      -3.136926   -0.222332   -0.895924
H      -3.132561   -0.404217    0.849782
H      -2.553242    1.098033    0.122183
H      -0.780674   -2.603319    0.699474
H      -2.261146   -2.460479   -0.231107
H      -0.812755   -3.741554   -1.567076
H      -0.791808   -2.131316   -2.319241
H       2.623847   -1.736907   -1.384325
H       1.274514   -0.926093   -2.209520
H       2.113571    0.091657    0.001242
H       1.440005   -1.307740    0.817450
