19

C      -0.082666    1.628052   -0.030794
C       0.142757    0.119980    0.057905
C       1.391944   -0.702812   -0.198128
C       2.683515   -0.174891    0.477335
N       2.400440    1.120856    1.147064
C       2.025675   -0.164156    1.795561
C       0.705966   -0.725085    1.175850
C      -0.037294   -1.837759    1.857868
H       0.613646    2.100046   -0.727141
H      -1.101130    1.824232   -0.385086
H       0.046660    2.120163    0.932662
H      -0.693437   -0.430140   -0.376345
H       1.414230   -1.489947   -0.943068
H       3.691914   -0.454532    0.201513
H       3.272704    1.420905    1.584091
H       2.406454   -0.432187    2.773247
H      -0.591925   -1.472563    2.731879
H      -0.758976   -2.302607    1.178469
H       0.645115   -2.623005    2.206466
