19

C      -0.359421    1.397585    0.275856
C      -0.088804   -0.096335    0.061851
C       0.869138   -0.652495    1.096872
O       0.340823   -0.596770    2.457537
C       0.752618   -1.955407    2.724252
C       1.149207   -2.165112    1.226913
C      -0.061604   -3.117418    1.022149
C      -0.446736   -2.910181    2.505604
O      -1.315924   -3.332890    3.206549
H       0.562565    1.983032    0.191451
H      -1.068522    1.778865   -0.464327
H      -0.778175    1.571341    1.271038
H      -1.034171   -0.647962    0.099424
H       0.344774   -0.267115   -0.932544
H       1.812707   -0.086995    1.062657
H       1.394345   -2.054729    3.603749
H       2.121920   -2.528910    0.903691
H      -0.814538   -2.857464    0.274935
H       0.243497   -4.155065    0.848460
