17

C      -0.015367   -1.162664    0.128411
C      -0.049650    0.036945    0.010703
C      -0.042481    1.440430   -0.130935
C      -1.081530    2.276319   -0.245039
C      -2.447713    2.587546    0.302160
O      -1.913338    3.864653    0.775622
C      -0.718667    3.710357   -0.072254
C       0.699383    3.659441    0.517521
C       1.237257    2.293915   -0.022658
H      -0.001070   -2.219207    0.232917
H      -3.245292    2.744496   -0.435383
H      -2.813356    1.948738    1.112702
H      -0.806511    4.374724   -0.942315
H       1.330861    4.509331    0.245427
H       0.623579    3.618159    1.608535
H       1.960510    1.829363    0.652914
H       1.736615    2.409725   -0.992537
