23

C      -0.031795    1.555867   -0.017408
C       0.049456    0.025957    0.016561
C       0.664971   -0.536962   -1.272200
O       0.828860   -1.937844   -1.193512
C       1.849808   -2.303694   -0.280813
C       1.683161   -1.711868    1.125853
C       1.684760   -2.729235    2.248953
C       2.288910   -0.349460    1.386702
C       0.792295   -0.493146    1.239179
H       0.967146    2.002517   -0.069928
H      -0.603782    1.904894   -0.884405
H      -0.519975    1.943429    0.882544
H      -0.971244   -0.376438    0.068396
H       0.001161   -0.346606   -2.121357
H       1.630167   -0.045969   -1.492227
H       1.812986   -3.395804   -0.227780
H       2.832430   -2.024685   -0.698404
H       2.625961   -3.292046    2.275513
H       1.563710   -2.244341    3.223099
H       0.868811   -3.451954    2.130652
H       2.685360   -0.143660    2.375787
H       2.849817    0.118912    0.583060
H       0.225948   -0.411529    2.164621
