14

O       0.041214   -0.005970    0.320695
C       0.033122    1.189142    0.286925
O      -1.100094    1.932985    0.343534
C      -0.818909    3.337027    0.164322
C       0.685559    3.518265    0.444153
C       1.219648    2.128966    0.180898
C       2.582189    1.634168    0.381961
O       2.083159    1.884415   -0.932925
H      -1.082282    3.609160   -0.862892
H      -1.461416    3.889823    0.851499
H       1.151337    4.267566   -0.197722
H       0.850576    3.800195    1.488529
H       3.346574    2.326327    0.732382
H       2.724353    0.584882    0.631572
