23

C       0.186285    1.603420    0.107036
C       0.015252    0.090727    0.023056
C       0.623596   -0.487465   -1.266484
C       0.133182   -1.885293   -1.694317
C      -0.177923   -2.868336   -0.547880
C      -0.110082   -4.319667   -1.008527
O       0.721853   -2.725419    0.551442
C       0.348999   -1.764600    1.501921
O       0.675062   -0.446339    1.172593
H       1.245069    1.870644    0.029533
H      -0.356482    2.100066   -0.702541
H      -0.190530    1.975818    1.063053
H      -1.060028   -0.152032    0.080614
H       0.441828    0.209638   -2.092633
H       1.706449   -0.507853   -1.105645
H      -0.778378   -1.792517   -2.298465
H       0.888887   -2.328778   -2.353890
H      -1.195571   -2.663703   -0.178006
H       0.913184   -4.571373   -1.304745
H      -0.411079   -4.995600   -0.203817
H      -0.767379   -4.483971   -1.868140
H      -0.736828   -1.847951    1.699039
H       0.912821   -1.988906    2.410894
