16

C      -0.144570    1.500714   -0.017937
C      -0.009014   -0.000316   -0.093340
C       0.696912   -0.708395   -1.214237
N       1.383733   -0.091082   -2.304921
C       1.363549   -0.685011    0.181093
C       2.512336    0.166761    0.342100
N       3.413816    0.886198    0.429553
C       1.372055   -1.900630    0.952316
N       1.337947   -2.883207    1.560789
H       0.702377    2.018664   -0.472639
H      -1.053545    1.812675   -0.542356
H      -0.221774    1.835506    1.020190
H      -0.827107   -0.556786    0.354978
H       0.300719   -1.686386   -1.472514
H       0.731757    0.191307   -3.029029
H       1.922514    0.720701   -2.025004
