13

O      -0.047789   -0.033465   -0.000262
C       0.007952    1.157320    0.009240
N       1.205949    1.908793    0.001703
C       1.276075    3.285182    0.012585
C       2.602101    3.603755   -0.000181
C       3.274811    2.343815   -0.018544
C       4.741526    2.141505   -0.037218
O       5.296853    1.073397   -0.052968
N       2.420950    1.326157   -0.017276
H      -0.865494    1.834010    0.024972
H       0.383787    3.890634    0.028056
H       3.042542    4.587896    0.002990
H       5.313143    3.096584   -0.035669
