20

C       0.114144    1.596329    0.372592
C      -0.018044    0.124265    0.050542
C       1.150486   -0.644638   -0.517769
C       0.672019   -0.897315    0.899912
O      -1.299984   -0.279959   -0.369982
C      -1.676418    0.164569   -1.655607
C      -2.993522   -0.549938   -1.986223
C      -3.518511   -0.159877   -3.290629
N      -3.918576    0.160413   -4.326141
H       1.104432    1.810232    0.783797
H      -0.014266    2.223704   -0.515933
H      -0.635955    1.893504    1.112914
H       0.933680   -1.410914   -1.253541
H       2.091545   -0.126498   -0.667288
H       1.282302   -0.551903    1.727017
H       0.132960   -1.819435    1.082647
H      -1.829205    1.252321   -1.683337
H      -0.909771   -0.085503   -2.402361
H      -2.835355   -1.633135   -1.965859
H      -3.733145   -0.318645   -1.212592
