16

C      -0.026356    1.486246    0.035643
C      -0.004634    0.031780    0.014429
C       0.027585   -1.169883   -0.001272
C       0.029759   -2.641342   -0.023598
C      -1.431105   -3.182874   -0.103998
C       0.809636   -3.141919   -1.168925
C       1.413289   -3.564227   -2.115734
C       0.645059   -3.144289    1.230839
N       1.096359   -3.545715    2.215001
H       0.541187    1.899788   -0.804624
H      -1.050433    1.868534   -0.029768
H       0.416638    1.870028    0.960628
H      -1.889739   -2.819674   -1.024966
H      -1.422196   -4.274482   -0.107329
H      -2.002528   -2.823103    0.753553
H       1.961621   -3.930386   -2.948774
