19

O       0.057268   -0.052133    0.396654
C       0.013188    1.123924    0.122932
C      -1.323285    1.838242   -0.059009
C      -1.367247    3.046221   -0.999867
O      -1.248595    2.756107   -2.376908
C      -0.115275    2.021070   -2.808404
C       1.262942    2.544038   -2.358855
O       1.873517    1.796093   -1.319622
C       1.326003    1.925286   -0.019420
H      -2.072542    1.089251   -0.331674
H      -1.595862    2.207191    0.941649
H      -2.342540    3.532514   -0.902211
H      -0.616271    3.788230   -0.688886
H      -0.185082    0.961374   -2.518198
H      -0.176085    2.060695   -3.900182
H       1.960427    2.453032   -3.196576
H       1.196812    3.612227   -2.099388
H       1.198431    2.983606    0.252996
H       2.051367    1.467610    0.657217
