19

O      -0.770959    1.075997   -0.238963
C       0.254308    0.977567    0.384938
C       1.488372    1.806881    0.140649
C       1.424453    2.981872   -0.896099
C       2.165664    3.898905    0.142077
C       1.652387    5.223131    0.741592
C       1.598795    4.923173    2.277759
C       1.391178    3.409302    2.335962
C       1.783438    2.881965    1.181736
H       0.345924    0.255007    1.228634
H       2.343051    1.138118   -0.026928
H       1.916674    2.812337   -1.855614
H       0.386540    3.277852   -1.062601
H       3.241570    3.923880   -0.071836
H       2.272651    6.090997    0.500793
H       0.638144    5.428989    0.381605
H       2.527282    5.229837    2.779788
H       0.786835    5.463741    2.775705
H       0.924983    2.906942    3.175166
