13

O       0.027261    0.065790    0.387738
C       0.138414    1.195110    0.028175
O       0.891395    2.099569    0.697651
C       0.933958    3.437612    0.198130
C       2.359286    3.879075    0.103323
N       2.727628    5.095444    0.402758
O       4.070509    5.145089    0.172793
N       4.547109    3.941407   -0.262027
C       3.511366    3.151935   -0.311976
H      -0.343605    1.623328   -0.872615
H       0.450726    3.486892   -0.787150
H       0.387738    4.096095    0.878530
H       3.605908    2.121653   -0.616019
