19

C      -0.029826    1.451590   -0.284963
C       1.456352    1.592604    0.210335
C       1.237132    0.252571    0.910084
C       1.864461   -1.019218    1.493836
C       0.543056   -1.816223    1.681737
C       1.095327   -0.953268    2.791204
C       0.263269    0.200995    2.167666
C      -0.546496   -0.771293    1.240957
C       0.039597   -0.096122   -0.007916
H      -0.741715    1.985566    0.348593
H      -0.216093    1.729244   -1.323645
H       2.158283    1.523509   -0.627637
H       1.721659    2.458785    0.823877
H       2.797463   -1.521074    1.270901
H       0.512097   -2.896163    1.611998
H       1.380197   -1.191749    3.807734
H      -0.123267    1.084129    2.669763
H      -1.591154   -1.050654    1.389740
H       0.189487   -0.695578   -0.910440
