18

C       0.126131    1.359287   -0.033659
O      -0.167025    0.001649   -0.289649
C       0.711854   -0.615770   -1.217686
C       2.090168   -0.691923   -0.705462
C       3.211390   -0.758266   -0.276771
C       0.160209   -1.990872   -1.526040
C      -0.945392   -2.132776   -2.536491
C       0.442891   -2.623766   -2.862769
H       1.119652    1.486854    0.416633
H       0.080458    1.962654   -0.954301
H      -0.632977    1.720855    0.663611
H       0.726892   -0.026264   -2.152633
H       4.203819   -0.819117    0.096718
H       0.133636   -2.646246   -0.661792
H      -1.722396   -2.862899   -2.341094
H      -1.296283   -1.232440   -3.029780
H       1.027663   -2.056963   -3.579979
H       0.625273   -3.691827   -2.891502
