15

O      -0.041137   -0.011291    0.067038
C       0.016835    1.199220    0.024660
C       1.266652    1.953208   -0.026807
C       1.378610    3.292117   -0.006926
C       2.804562    3.688165    0.003483
C       3.582748    3.196124    1.183961
N       3.610321    2.437717   -0.061852
C       2.641066    1.316112   -0.111221
H      -0.905765    1.821253    0.013256
H       0.555095    3.996817    0.011378
H       3.144801    4.550673   -0.561948
H       4.522541    3.677163    1.441074
H       3.014411    2.807134    2.026667
H       2.828751    0.605412    0.700555
H       2.767918    0.767101   -1.051168
