22

C      -0.009285    1.518366    0.093960
C       1.438912    2.049564    0.028863
C       2.360568    1.441005   -1.038767
C       1.888173    1.580442   -2.488002
O       0.602258    1.047056   -2.749941
C       0.435939   -0.339907   -2.489780
C      -0.556859   -0.578001   -1.350788
C      -0.168626   -0.020301    0.030503
H      -0.441551    1.883646    1.033089
H      -0.600066    1.966349   -0.709509
H       1.402311    3.138878   -0.104924
H       1.915785    1.883846    1.003842
H       3.346928    1.918383   -0.971862
H       2.536612    0.382359   -0.813085
H       1.814461    2.640125   -2.759075
H       2.636109    1.122664   -3.157494
H       0.050456   -0.806670   -3.406927
H       1.400253   -0.819082   -2.271614
H      -1.517608   -0.138450   -1.648843
H      -0.723268   -1.660732   -1.272401
H       0.744883   -0.512667    0.390335
H      -0.955244   -0.323687    0.730835
