20

C      -0.022099    1.318621   -0.299858
C      -0.036939   -0.144592    0.114532
O       0.972747   -0.738874    0.455691
N      -1.254802   -0.765557    0.082637
C      -2.543316   -0.158944   -0.274526
C      -3.559929   -1.280380    0.009975
C      -2.735475   -2.570635   -0.156735
O      -2.622475   -2.963587   -1.517416
C      -1.386276   -2.178844    0.453303
H       1.012852    1.658596   -0.305231
H      -0.459521    1.464418   -1.292941
H      -0.596675    1.932067    0.402549
H      -2.745919    0.741197    0.314940
H      -2.562609    0.136126   -1.332592
H      -3.925016   -1.206432    1.039665
H      -4.418217   -1.258356   -0.663453
H      -3.189775   -3.420260    0.357961
H      -2.006677   -2.365373   -1.954301
H      -0.554176   -2.759813    0.051122
H      -1.384110   -2.305048    1.544280
