20

C       0.213452    1.439581    0.207611
C      -0.197598   -0.004705   -0.105003
C       0.596739   -0.583020   -1.259403
C       1.959464   -1.202023   -1.167667
C       2.140007   -2.033297    0.108887
C       0.902660   -2.902105   -0.278018
C       0.729089   -2.065744   -1.561179
C       0.384542   -2.605765   -2.834559
N       0.103144   -3.055171   -3.864545
H       1.269429    1.497181    0.491464
H       0.068516    2.089597   -0.661926
H      -0.380002    1.847287    1.031249
H      -0.079518   -0.619261    0.792705
H      -1.263908   -0.039363   -0.359838
H       0.483446   -0.011996   -2.179562
H       2.764524   -0.890611   -1.822022
H       3.064063   -2.613402    0.101229
H       2.085560   -1.482113    1.051890
H       1.175903   -3.934406   -0.499707
H       0.050376   -2.904817    0.406354
