19

C      -0.034275    1.498068   -0.229884
C       0.005701    0.017475    0.062794
C      -1.086082   -0.744081   -0.105947
C      -1.259285   -2.227295    0.087485
C      -0.694148   -2.786096    1.398021
C       0.803948   -2.752390    1.489039
C       1.639454   -1.811248    1.036339
C       1.366100   -0.479475    0.440547
O       2.322190    0.268908    0.282617
H       0.656919    1.752400   -1.038498
H      -1.042079    1.816171   -0.507355
H       0.291923    2.077920    0.639819
H      -1.977205   -0.231233   -0.464717
H      -2.328902   -2.457114    0.044366
H      -0.802003   -2.767189   -0.754190
H      -1.125037   -2.238421    2.249296
H      -1.028385   -3.823268    1.511821
H       1.257296   -3.603212    1.994701
H       2.707403   -1.947446    1.184693
