24

C       0.017918    1.455692   -0.296994
C      -0.069711   -0.006530    0.146098
C      -1.464949   -0.588049   -0.036761
O      -1.454606   -1.933767    0.398447
C      -2.700384   -2.570881    0.299173
C      -3.071937   -3.121348   -1.108842
N      -2.585341   -4.447836   -0.688836
C      -3.324078   -5.619293   -1.092280
C      -2.603233   -4.048181    0.730864
H       1.029112    1.848496   -0.157319
H      -0.237775    1.568548   -1.356472
H      -0.666193    2.090175    0.277516
H       0.638376   -0.620041   -0.422477
H       0.211221   -0.103175    1.201069
H      -2.203662   -0.007842    0.544268
H      -1.767846   -0.522893   -1.095272
H      -3.478998   -1.970897    0.789057
H      -4.159086   -3.084509   -1.292265
H      -2.549619   -2.690511   -1.970640
H      -3.272419   -5.736497   -2.180245
H      -2.881881   -6.513447   -0.639527
H      -4.394004   -5.584860   -0.803921
H      -1.708822   -4.319471    1.301075
H      -3.501110   -4.382651    1.276113
