17

N       0.168133    1.365689   -0.301298
C       0.043738   -0.034784   -0.051005
C      -1.038538   -0.836408    0.259377
N      -0.574679   -2.110932    0.417355
C       0.792996   -2.171364    0.188899
C       1.544660   -3.451414    0.280204
O       0.961841   -4.493136   -0.512102
C       1.186775   -0.882379   -0.097440
O       2.443598   -0.448141   -0.370588
H      -0.094224    1.924081    0.504424
H      -0.409188    1.669558   -1.078324
H      -2.084510   -0.598395    0.372174
H      -1.143094   -2.931635    0.533789
H       2.591943   -3.262788    0.008307
H       1.541414   -3.856430    1.300052
H       0.926233   -4.164661   -1.417337
H       2.345689    0.503679   -0.528031
