20

C      -0.091495    1.526462   -0.048286
C      -0.010190    0.022644   -0.048939
C       0.052919   -0.731144    1.253756
C       1.359863   -0.483920    2.027624
C       1.385911   -1.239023    3.371873
C       2.614160   -1.016501    4.124543
C       3.635660   -0.814794    4.725156
N       0.014407   -0.687726   -1.112079
O      -0.029615    0.110310   -2.268907
H       0.824585    1.964554   -0.459338
H      -0.909721    1.859624   -0.693389
H      -0.243446    1.918546    0.959399
H      -0.798090   -0.431064    1.881960
H      -0.057043   -1.798641    1.040011
H       2.211640   -0.802504    1.417528
H       1.494809    0.586176    2.219663
H       0.524365   -0.931982    3.979894
H       1.257970   -2.313975    3.188525
H       4.534288   -0.645046    5.264270
H      -0.028183   -0.550909   -2.968743
