19

C      -0.288799    1.427901   -0.252885
O      -0.332451    0.040630   -0.494163
C       0.961760   -0.525209   -0.569058
C       0.874619   -1.954607   -0.829086
C       0.828619   -3.137365   -1.050949
C       0.752003   -4.564102   -1.305079
C      -0.619265   -5.258969   -1.070896
C      -0.517998   -5.643456   -2.558773
O       0.717664   -4.912897   -2.714958
H       0.209966    1.663097    0.701120
H       0.237384    1.967851   -1.056344
H      -1.321579    1.780166   -0.207987
H       1.549033   -0.041105   -1.369323
H       1.513129   -0.349749    0.371712
H       1.589515   -5.073049   -0.808699
H      -0.605286   -6.081256   -0.355003
H      -1.426513   -4.569787   -0.824789
H      -0.385656   -6.713712   -2.760000
H      -1.306716   -5.253440   -3.212030
