18

O      -0.041270    1.485702   -0.192061
C       0.028979    0.103783   -0.091374
C       0.066807   -0.537715    1.329546
N      -1.378146   -0.055078    1.465450
C      -1.297504   -0.698106    0.080056
C      -0.458558   -1.841436    0.690651
C       0.329179   -2.952998   -0.026728
C      -0.430312   -3.896098    0.923893
O      -1.125160   -2.786057    1.539771
H      -0.688332    1.748773    0.480693
H       0.745744   -0.264407   -0.826744
H       0.797325   -0.403456    2.128668
H      -1.884808   -0.677866    2.098618
H      -2.162777   -0.751447   -0.582313
H       0.103673   -3.072044   -1.087937
H       1.411492   -2.918126    0.109543
H      -1.128286   -4.594151    0.448746
H       0.183799   -4.439519    1.650376
