18

C       0.046917    1.549465    0.000510
C       0.060369    0.013679   -0.015921
C      -1.328793   -0.563753    0.040536
C      -2.316932   -0.402167    1.211773
N      -3.003822   -1.683766    0.797582
C      -3.059281   -1.642960   -0.701878
C      -1.813999   -2.078316    0.036361
C      -2.292158   -0.441906   -1.167054
O      -2.259328    0.196490   -2.182125
H       1.065028    1.946191   -0.043035
H      -0.510018    1.936345   -0.856759
H      -0.421162    1.933691    0.913236
H       0.555855   -0.336825   -0.929573
H       0.649992   -0.367418    0.827537
H      -1.868717   -0.568096    2.194941
H      -2.959795    0.484910    1.234371
H      -3.815379   -2.239476   -1.192867
H      -1.324747   -3.042554    0.048089
