18

O       0.218649    1.400594   -0.274586
C       0.059480    0.016844   -0.042303
C       1.000930   -0.794187   -0.962510
O       1.741670   -1.277642    0.206458
C       0.959790   -0.543361    1.063951
N       1.014177   -0.388838    2.307867
C      -1.394271   -0.380991   -0.006519
C      -1.878246   -1.620125    0.702491
C      -2.186953   -0.261120    1.276318
H      -0.256320    1.861981    0.426638
H       0.553495   -1.624767   -1.511146
H       1.635236   -0.180050   -1.603606
H       1.793875   -0.903991    2.721221
H      -1.913971   -0.110999   -0.922248
H      -2.678784   -2.183071    0.236164
H      -1.152160   -2.227201    1.231465
H      -1.646404    0.021712    2.172797
H      -3.202605    0.112174    1.211030
