18

C      -0.001984    1.518512    0.029193
C      -0.012404    0.003672   -0.012779
C      -0.859156   -0.746733    0.986739
C       0.649698   -0.769825    1.137896
C       1.431327   -2.008120    0.858719
O       2.143507   -2.551496    1.681246
N       1.311558   -2.504993   -0.428287
C       0.748833   -1.807059   -1.497913
C       0.148277   -0.623034   -1.348462
H       0.935354    1.919056   -0.370854
H      -0.824545    1.928541   -0.568167
H      -0.118189    1.887424    1.052757
H      -1.401323   -0.172011    1.729783
H      -1.356702   -1.651956    0.657859
H       1.061328   -0.206560    1.967401
H       1.864286   -3.329391   -0.608471
H       0.840542   -2.301506   -2.457422
H      -0.251927   -0.111234   -2.215719
