15

C      -0.020331    1.563775    0.020827
C      -0.000483    0.060512    0.011702
C      -0.073938   -0.667978   -1.116797
F      -0.170223   -0.148325   -2.324528
O      -0.061456   -1.997257   -1.193490
C       0.035251   -2.805718   -0.035638
N       0.044349   -4.067421   -0.147508
C       0.116895   -2.070366    1.206356
C       0.099534   -0.720656    1.221202
H       0.892352    1.969011    0.472518
H      -0.100549    1.962695   -0.991696
H      -0.867454    1.944967    0.602470
H      -0.023769   -4.355007   -1.123054
H       0.191488   -2.666332    2.105736
H       0.162027   -0.188427    2.165644
