17

C      -0.017808    1.449232   -0.030361
N      -0.012767   -0.004120    0.034811
C      -0.018024   -0.634159    1.256886
N      -0.027376    0.002327    2.363400
C      -0.002227   -0.707216   -1.168596
C       0.003887   -0.152238   -2.418952
O       0.013756   -1.132573   -3.371353
C       0.013877   -2.314824   -2.719939
C       0.004426   -2.134253   -1.374770
H       0.874790    1.810612   -0.554403
H      -0.905885    1.803816   -0.566563
H      -0.026171    1.832096    0.988108
H      -0.013320   -1.722553    1.165987
H      -0.029834   -0.651295    3.141842
H       0.002623    0.858936   -2.783133
H       0.021162   -3.196838   -3.339014
H       0.002489   -2.918782   -0.636799
