23

C      -0.595834    1.485706   -0.088168
C      -0.322067    0.008753    0.140092
O      -1.451419   -0.721971   -0.317508
C      -1.415849   -2.098529   -0.081496
C      -0.497855   -2.887983   -0.989067
C      -1.651797   -2.567666    1.345591
C      -2.747512   -2.694551    0.323603
O      -3.850503   -1.877010    0.513416
C      -4.487579   -1.518731   -0.700726
H       0.254356    2.087347    0.247269
H      -0.764069    1.685501   -1.150370
H      -1.485963    1.799902    0.464040
H       0.584880   -0.299778   -0.401818
H      -0.149690   -0.195754    1.207420
H       0.557683   -2.673041   -0.788862
H      -0.643804   -3.963131   -0.847699
H      -0.702497   -2.648438   -2.037892
H      -1.151349   -3.458694    1.708882
H      -1.814703   -1.791388    2.084826
H      -2.979730   -3.686413   -0.072809
H      -5.356614   -0.911463   -0.435964
H      -3.818066   -0.936454   -1.344498
H      -4.832849   -2.407379   -1.251566
