13

N       0.034057    1.286085   -0.167078
C      -0.025508   -0.042158   -0.058357
N      -1.162818   -0.687836   -0.031093
C      -1.068608   -2.032047    0.082093
F      -2.232949   -2.656527    0.107233
N      -0.026042   -2.782958    0.168073
N       1.152282   -2.077777    0.136618
C       1.292200   -0.722558    0.027691
N       2.363902   -0.011790   -0.006759
H       0.952517    1.704970   -0.182121
H      -0.809251    1.829148   -0.232675
H       1.971044   -2.661830    0.203574
H       3.213419   -0.571296    0.058813
