18

C      -0.005126    1.567512   -0.101873
C       0.021204    0.048036    0.065145
O       0.786892   -0.350733    1.190834
C      -1.387608   -0.549097    0.155060
C      -1.418416   -2.090431    0.245402
N      -2.439432   -2.276425    1.259337
C      -2.612250   -1.147239    2.023555
O      -3.201865   -1.027545    3.059924
O      -1.988294   -0.101716    1.386174
H       1.015950    1.955572   -0.121973
H      -0.505627    1.853473   -1.032926
H      -0.542474    2.035823    0.728780
H       0.518330   -0.407041   -0.801171
H       0.330344   -0.006928    1.969086
H      -2.009320   -0.190374   -0.673908
H      -1.698025   -2.546641   -0.708253
H      -0.440927   -2.476214    0.559553
H      -2.595718   -3.163431    1.709354
