13

N       0.035308    1.317846    0.152283
C      -0.013492   -0.040980    0.035821
N      -1.140165   -0.716625   -0.052182
O      -0.670394   -2.071271   -0.079956
C       0.654726   -1.989074   -0.012906
O       1.391176   -3.095881   -0.032597
C       0.774406   -4.332434   -0.007520
N       1.512083   -5.341260   -0.098257
N       1.142012   -0.792949    0.058497
H       0.903809    1.734340   -0.144346
H      -0.795285    1.812107   -0.134700
H      -0.308588   -4.276571    0.098505
H       0.952074   -6.190823   -0.057135
