15

O      -0.000887    0.045407    0.077228
C      -0.015200    1.233893   -0.017414
C      -1.171482    2.255538    0.007269
C      -0.688041    3.074028    1.226835
O       0.765073    3.047736    1.137531
C       1.109532    2.288183   -0.035350
C       0.688142    3.117381   -1.247382
O      -0.056658    2.365244   -2.220273
C      -0.785041    3.087770   -1.217820
H      -2.181239    1.856116    0.062068
H      -1.028165    4.115671    1.208405
H      -0.996611    2.615590    2.172450
H       2.137426    1.942853    0.042051
H       1.272865    3.952995   -1.615960
H      -1.406980    3.904302   -1.570478
