17

N      -0.075181    1.235225   -0.261779
C      -0.046212   -0.018395   -0.123260
O      -1.196721   -0.710657   -0.011824
C      -1.074809   -2.120555    0.185728
C      -2.468915   -2.709406    0.142166
C      -3.118239   -2.763339   -1.257252
O      -2.984079   -4.201210   -1.309103
C      -2.518732   -4.250503    0.052985
H       0.872563    1.598404   -0.338324
H       0.852552   -0.650185   -0.083800
H      -0.450534   -2.561174   -0.604806
H      -0.596788   -2.325901    1.153996
H      -3.084492   -2.260355    0.923577
H      -4.168045   -2.448163   -1.293356
H      -2.567780   -2.263651   -2.062606
H      -1.558958   -4.776192    0.144222
H      -3.246214   -4.727647    0.721911
