18

C      -0.150834    1.343627   -0.069082
O       0.304076    0.016648    0.097486
C       0.789492   -0.554210   -1.084879
C       1.110819   -2.069504   -0.907743
C      -0.423577   -2.319610   -1.076104
C      -0.257278   -1.156473   -2.080838
O       0.590988   -1.694387   -3.105025
C       1.598006   -2.388817   -2.322632
H       0.646602    1.996823   -0.454892
H      -1.008230    1.405209   -0.754721
H      -0.458621    1.704485    0.914974
H       1.562670    0.077212   -1.547890
H       1.689107   -2.440156   -0.062860
H      -0.751209   -3.281572   -1.476616
H      -0.985384   -2.038970   -0.187190
H      -1.079000   -0.603741   -2.533252
H       2.590866   -1.984373   -2.550737
H       1.585707   -3.459569   -2.558074
