17

C       0.044100    1.436919    0.134364
C      -0.033729   -0.040241   -0.063616
C       0.585655   -0.946194   -1.157568
C       0.046512   -1.849610   -0.030703
O       0.623608   -0.924845    0.965579
C       0.198552   -3.266784    0.163701
N       0.261985   -4.413601    0.299218
C      -1.278351   -0.972836    0.001490
N      -2.078472   -0.882080    1.174644
H       1.084746    1.760119    0.226322
H      -0.407489    1.952359   -0.718973
H      -0.500209    1.727307    1.037375
H       0.094422   -0.991947   -2.132166
H       1.672742   -0.910836   -1.219312
H      -1.892934   -1.027580   -0.900839
H      -2.768659   -1.623001    1.220203
H      -1.484422   -0.937559    1.996807
