17

N       0.026385    1.224762   -0.085453
C      -0.014896   -0.030882   -0.177476
O      -0.897695   -0.729977    0.569871
C      -0.991132   -2.128267    0.348177
C      -1.337377   -2.828124    1.671411
O      -2.057875   -4.006903    1.299208
C      -2.566334   -3.886694    0.029562
N      -3.252324   -4.768225   -0.552552
C      -2.163576   -2.547249   -0.545808
H       0.753650    1.596364   -0.692644
H       0.617138   -0.665735   -0.813967
H      -0.041989   -2.508991   -0.048858
H      -0.464191   -3.127486    2.254392
H      -1.968800   -2.170537    2.280355
H      -3.397379   -5.573732    0.059018
H      -2.981484   -1.828967   -0.419128
H      -1.933815   -2.620171   -1.608647
