17

C      -0.151714    1.627874   -0.055705
C       0.115344    0.140650   -0.010226
O      -0.959378   -0.589261   -0.579933
C       1.414428   -0.618609   -0.244523
C       2.673032   -0.139720    0.529238
N       2.377457    1.103547    1.289808
C       1.951256   -0.221858    1.814044
C       0.666011   -0.715114    1.098428
H      -0.246304    1.948717   -1.102474
H      -1.104654    1.834433    0.443210
H       0.643525    2.198772    0.413669
H      -1.073014   -0.266481   -1.480910
H       1.459536   -1.376594   -1.016198
H       3.691522   -0.405735    0.276113
H       3.233733    1.346848    1.788562
H       2.280602   -0.565274    2.786270
H       0.085206   -1.552360    1.463551
