17

C      -0.084756    1.561604   -0.077111
C       0.010166    0.047139   -0.017603
O       0.892184   -0.464453   -1.050992
C       1.859200   -1.187377   -0.330884
C       1.221416   -1.950094    0.860728
O       2.420010   -1.735109    1.685761
C       2.247094   -0.455130    0.980767
C       0.693279   -0.516100    1.220462
O       0.120744   -0.221723    2.434691
H       0.899249    2.020812    0.058424
H      -0.482234    1.879862   -1.044545
H      -0.749752    1.924951    0.712049
H      -0.982875   -0.400739   -0.153746
H       2.607839   -1.649633   -0.968579
H       0.725763   -2.919126    0.912022
H       2.966930    0.339327    1.174275
H       0.672338   -0.646724    3.106430
