17

C       0.009660    1.487598    0.055334
C      -0.005496   -0.004472   -0.020980
C       0.013316   -0.776055   -1.109898
C       0.052942   -2.220039   -0.724516
C       1.258004   -2.641923    0.065496
N       0.031221   -2.280532    0.766233
C      -0.036814   -0.874536    1.222860
C      -0.719300   -3.183538   -1.471495
N      -1.318622   -3.942487   -2.104968
H       0.908432    1.849189    0.570155
H      -0.018342    1.942123   -0.937803
H      -0.849168    1.859258    0.627957
H       0.011538   -0.446217   -2.140465
H       1.517660   -3.694501    0.132427
H       2.095035   -1.946704    0.059791
H       0.794395   -0.664772    1.908054
H      -0.963873   -0.727127    1.792313
