18

C       0.283366    1.382356   -0.052186
C      -0.017018   -0.124150   -0.053017
C       0.936654   -0.926483   -1.007636
C       1.869327   -1.229822    0.193755
C       0.698344   -0.877396    1.142886
O       0.935254   -0.209292    2.349031
C      -1.439525   -0.372872   -0.196991
C      -2.616452   -0.597620   -0.308540
H       1.361427    1.573114   -0.002329
H      -0.092398    1.845927   -0.968288
H      -0.196232    1.871220    0.800308
H       0.451071   -1.823248   -1.396008
H       1.357724   -0.361877   -1.842137
H       2.295480   -2.231531    0.274679
H       2.684046   -0.502608    0.275616
H       0.119907   -1.767116    1.402667
H       1.517923    0.537122    2.174746
H      -3.655194   -0.794555   -0.405853
