15

N      -0.294077    1.348107   -0.405816
C      -0.095676    0.002092   -0.109648
C      -1.011012   -1.009770   -0.000313
C      -2.504219   -1.020212   -0.063888
C      -2.934386   -0.446457   -1.408121
O      -3.113543    0.732173   -1.590756
O      -0.369805   -2.189393    0.190815
N       0.992725   -1.963991    0.244753
C       1.147439   -0.675825    0.058650
H       0.247769    1.986553    0.159442
H      -1.267423    1.620725   -0.450892
H      -2.860616   -2.046885    0.054618
H      -2.934297   -0.394031    0.726571
H      -3.025223   -1.178231   -2.237745
H       2.144463   -0.257490    0.048236
