18

O       0.059248    1.366884   -0.315333
C       0.037153   -0.027093   -0.061226
C       0.676697   -0.445710    1.303110
N      -0.396307   -0.853972    2.216118
C      -1.237270    0.257073    2.785080
C      -2.407871   -0.138045    1.867093
O      -2.324648    0.522607    0.590422
C      -1.434840   -0.490722    0.058149
C      -1.535143   -1.307195    1.366338
H       0.966401    1.610854   -0.522339
H       0.517559   -0.575335   -0.886230
H       1.349981   -1.299133    1.151374
H       1.263145    0.370359    1.735572
H      -1.412776    0.106002    3.855718
H      -0.863145    1.270089    2.608098
H      -3.427854   -0.183702    2.251124
H      -1.834695   -0.905091   -0.871943
H      -1.765820   -2.372466    1.362518
