21

C      -0.486535    1.488185    0.091446
C       0.092549    0.085136   -0.047494
O       0.819212    0.026532   -1.284302
C       2.064837   -0.618883   -1.236148
C       2.370076   -1.719755   -0.254886
C       1.362371   -1.847062    0.876441
C       0.984147   -0.370124    1.123973
C       2.350857    0.352103    1.063820
C       3.024918   -0.340238   -0.112922
H       0.299255    2.239670    0.209447
H      -1.061423    1.741358   -0.803674
H      -1.155409    1.542123    0.957020
H      -0.748933   -0.623439   -0.121595
H       2.458234   -0.711183   -2.242348
H       2.931737   -2.587312   -0.583282
H       0.490389   -2.457688    0.618036
H       1.833494   -2.291540    1.761140
H       0.453188   -0.215413    2.066723
H       2.252801    1.433036    0.923028
H       2.916373    0.190141    1.988471
H       4.077428   -0.174914   -0.314463
