17

C       0.044986    1.551484   -0.078254
C       0.037756    0.097360   -0.012932
C       0.036571   -1.107281    0.027808
C       0.032385   -2.555084    0.096004
C       0.268278   -3.245722    1.479998
C      -1.117680   -3.854464    1.309652
C      -2.138958   -2.816480    1.080154
N      -1.319885   -3.244590   -0.069276
H       0.983019    1.924137   -0.504375
H      -0.772965    1.922292   -0.705808
H      -0.069635    1.998959    0.915227
H       0.695894   -2.968065   -0.668298
H       1.079623   -3.974210    1.440611
H       0.413266   -2.592725    2.344219
H      -1.374173   -4.890190    1.507372
H      -3.172134   -3.137711    0.991231
H      -2.004441   -1.813309    1.477617
