19

O      -1.039823    0.853556    0.590557
C      -0.396652    1.837222    0.331193
C       1.058663    1.837923   -0.097015
C       1.314515    2.732885   -1.300319
C       0.684920    2.242034   -2.607463
C       1.240442    0.972692   -3.069163
C       1.711663   -0.072272   -3.430403
C       1.382940    4.228734   -1.084385
C       2.636637    3.449029   -1.399311
H      -0.851276    2.853565    0.401857
H       1.639641    2.210700    0.758384
H       1.369034    0.806775   -0.289632
H      -0.401719    2.137358   -2.482240
H       0.826850    3.004341   -3.383113
H       2.118522   -0.996953   -3.757422
H       0.974960    4.877922   -1.851862
H       1.257343    4.607511   -0.075542
H       3.361575    3.298458   -0.606951
H       3.076095    3.562850   -2.384298
