17

C       0.005688    1.474778    0.045601
C       0.021346   -0.039944    0.000108
O       0.669207   -0.499983    1.203574
C       0.812274   -1.814977    1.360188
C       1.468903   -2.494831    2.349992
N       2.217551   -1.990424    3.436760
C       1.284976   -3.844433    1.956129
N       0.583093   -3.978195    0.854067
O       0.292278   -2.655454    0.455846
H       1.023020    1.873052    0.089264
H      -0.481044    1.865315   -0.852640
H      -0.544697    1.831593    0.920425
H      -0.991644   -0.454505   -0.041630
H       0.573899   -0.414315   -0.868654
H       2.310858   -0.983619    3.364810
H       1.777448   -2.193416    4.328658
H       1.644369   -4.734147    2.455534
