19

O       0.025541    1.351074   -0.090947
C       0.045182   -0.048446   -0.028101
C      -0.431164   -0.757995   -1.257739
C      -1.286463   -0.756696   -0.000397
C      -1.454416   -1.978257    0.877603
O      -1.254162   -1.673481    2.257628
C       0.085349   -1.646484    2.667158
O       0.848157   -0.557971    2.205493
C       1.166019   -0.618137    0.817217
H      -0.127315    1.667868    0.807614
H      -0.759782   -0.139173   -2.084462
H       0.063480   -1.680190   -1.546750
H      -2.138724   -0.084385   -0.022508
H      -2.472601   -2.371951    0.802263
H      -0.768675   -2.782962    0.569892
H       0.065861   -1.559193    3.755635
H       0.583050   -2.588056    2.366947
H       1.397030   -1.653725    0.527724
H       2.066713   -0.013757    0.673696
