17

C      -0.592475    1.436306   -0.032427
C       0.196868    0.145060    0.024349
C       1.099012   -0.137465   -1.214918
N       2.244362   -0.736079   -0.559391
C       3.440766   -1.356074   -0.823082
N       4.128842   -1.523059    0.280781
C       3.376715   -0.981247    1.314712
C       2.217770   -0.490383    0.785732
O       1.102184    0.183035    1.160313
H       0.076475    2.290930   -0.168583
H      -1.302483    1.409286   -0.865114
H      -1.155464    1.579486    0.893138
H      -0.474211   -0.710757    0.175844
H       0.616234   -0.815227   -1.922862
H       1.374243    0.786402   -1.738900
H       3.731634   -1.672652   -1.812542
H       3.716450   -0.987897    2.336392
