21

C      -0.893029    1.076486   -0.173718
C       0.026277   -0.125797    0.119541
C      -0.711374   -1.215755    0.768339
C      -1.302309   -2.129323    1.283437
C       0.704831   -0.633390   -1.152139
C       2.145042   -0.288170   -1.504452
C       3.019986    0.602011   -0.648261
C       1.787026   -1.683867   -1.057291
O       2.224219   -2.077459    0.210930
H      -0.314980    1.886978   -0.626957
H      -1.690622    0.793576   -0.867198
H      -1.356829    1.447907    0.743919
H       0.798331    0.204137    0.822284
H      -1.837623   -2.921813    1.745305
H       0.017097   -0.733688   -1.988330
H       2.324214   -0.187283   -2.571855
H       2.987455    0.305558    0.401628
H       4.063496    0.523533   -0.970755
H       2.727432    1.654759   -0.727581
H       1.793973   -2.478852   -1.802815
H       1.465535   -2.454515    0.674224
