20

C       0.500566    1.290233    0.039616
C      -0.099286   -0.118998    0.000623
C       0.413699   -0.955495   -1.221805
C       1.508744   -1.854768   -0.681607
N       2.528006   -1.131832    0.111551
C       1.441655   -1.867047    0.797076
C       0.301594   -0.975954    1.250668
C      -1.617160   -0.048576   -0.067197
O      -2.275954    0.957370   -0.087224
H       1.588490    1.230439    0.089289
H       0.210657    1.855765   -0.850751
H       0.129322    1.841576    0.908397
H      -0.387136   -1.587961   -1.628121
H       0.752374   -0.299235   -2.028761
H       1.812380   -2.726814   -1.252293
H       3.378070   -1.689360    0.145429
H       1.692970   -2.748690    1.378354
H       0.565319   -0.333126    2.095523
H      -0.532269   -1.614347    1.572480
H      -2.108102   -1.052638   -0.098794
