13

N       0.309001    1.228837    0.004138
C       0.020287   -0.003428    0.001049
N      -1.280484   -0.506359    0.010936
C      -2.485717    0.191154    0.027316
O      -2.605944    1.391348    0.036111
C      -3.629658   -0.711033    0.032972
C      -4.627279   -1.399090    0.038548
C      -5.739612   -2.178544    0.044672
C      -6.726487   -2.874150    0.050077
H       1.321419    1.343516   -0.004872
H       0.741412   -0.830483   -0.009796
H      -1.364988   -1.511234    0.005861
H      -7.597358   -3.482578    0.054879
