19

C      -0.032427    1.444622   -0.022013
C       1.285382    0.692397   -0.012061
C      -0.017704   -0.047740    0.014546
C      -0.510683   -0.947573    1.144903
C       0.320204   -2.234058    0.885327
C      -0.526919   -2.339270   -0.394944
C      -1.705721   -1.633924    0.307247
O      -2.015660   -0.825628   -0.830596
C      -0.579858   -0.919619   -1.100045
H      -0.319574    1.976169    0.879409
H      -0.340072    1.932869   -0.941159
H       1.870795    0.679753   -0.926333
H       1.883138    0.716375    0.893767
H      -0.641338   -0.522607    2.138707
H       1.404749   -2.124066    0.809232
H       0.074863   -3.046619    1.575774
H      -0.629485   -3.228557   -1.014158
H      -2.552895   -2.093448    0.814049
H      -0.308685   -0.734491   -2.138995
