19

C      -0.051856    1.526213    0.082549
C      -0.131603    0.003495    0.216660
C      -1.482992   -0.561909   -0.241878
C      -1.538934   -2.071653   -0.142123
C      -1.918105   -2.829650    1.078019
O      -2.919138   -2.097367    1.837709
C      -3.827236   -2.245155    0.789427
O      -4.974432   -1.941808    0.786944
C      -2.833531   -2.914072   -0.122207
H       0.920027    1.904016    0.414111
H      -0.194877    1.840225   -0.957367
H      -0.823972    2.016823    0.685000
H       0.675269   -0.459787   -0.366901
H       0.040865   -0.286460    1.260574
H      -2.284941   -0.121210    0.358720
H      -1.672897   -0.269338   -1.282274
H      -0.772835   -2.586482   -0.722602
H      -1.366917   -3.593147    1.608656
H      -3.038348   -3.707180   -0.826160
