19

O       0.082864    1.424243   -0.075723
C       0.009884    0.018720    0.057686
C      -1.424179   -0.431677    0.074984
C      -2.459451    0.403871    0.150199
C      -3.884577   -0.077319    0.109662
O      -4.708643    0.755385   -0.702313
C      -3.924924   -1.531183   -0.379427
O      -2.963026   -2.321487    0.294441
C      -1.639750   -1.925240    0.002135
H       0.997783    1.689920    0.050443
H       0.535633   -0.490155   -0.770841
H       0.501709   -0.322477    0.985941
H      -2.298657    1.474936    0.218851
H      -4.333944   -0.018084    1.109040
H      -4.257709    0.868688   -1.546891
H      -4.899981   -1.985469   -0.188073
H      -3.749399   -1.542961   -1.469914
H      -1.341049   -2.289784   -0.999399
H      -0.998733   -2.441982    0.727785
