13

O       0.007881    0.079495    0.516210
C      -0.014051    1.149075   -0.013400
O      -1.190251    1.755944   -0.288559
C      -1.272148    3.008437   -0.985620
C      -0.060864    3.873735   -0.696795
C       1.165679    3.042184   -1.018492
O       1.137084    1.787789   -0.320599
H      -1.357072    2.804545   -2.061057
H      -2.205879    3.466083   -0.651158
H      -0.081644    4.778972   -1.311185
H      -0.050882    4.174974    0.356010
H       1.227457    2.840781   -2.095971
H       2.095018    3.525433   -0.708707
