21

C       0.314302    1.496649   -0.234956
C       0.083307    0.024279    0.029987
O       0.874514   -0.837841   -0.839821
C       1.293049   -1.662923    0.284456
C       0.919042   -3.103641    0.033675
O       1.506713   -3.556861   -1.173371
C       2.704057   -1.263537    0.773971
C       2.050550   -0.252263    1.769659
C       0.633562   -0.675778    1.292001
H       1.368011    1.766984   -0.128491
H       0.004932    1.744481   -1.255342
H      -0.277391    2.106239    0.456719
H      -0.984212   -0.206071   -0.102156
H       1.292601   -3.749154    0.835790
H      -0.179287   -3.197916    0.008130
H       1.266441   -2.901495   -1.840531
H       3.248354   -2.075130    1.264123
H       3.332477   -0.836427   -0.009442
H       2.229126   -0.504436    2.817139
H       2.309366    0.799528    1.630798
H      -0.091523   -0.965325    2.052589
