11

N      -0.032642    1.288084    0.249974
C       0.015995    0.035303   -0.279857
O       0.992208   -0.408396   -0.851894
C      -1.252339   -0.799166   -0.104714
C      -0.917061   -2.171816    0.461373
O      -1.580212   -2.728290    1.295914
H       0.789631    1.865993    0.183099
H      -0.825839    1.628820    0.763044
H      -2.025846   -0.332133    0.509098
H      -1.658481   -0.960358   -1.112337
H      -0.001110   -2.622028    0.028869
