19

C       0.072698    1.497557    0.150331
C      -0.052725   -0.024703   -0.020782
C       0.691312   -0.542401   -1.210859
C       1.750830   -1.401778   -1.251921
N       2.067621   -1.545723   -2.600339
C       1.186251   -0.769382   -3.282032
O       1.265300   -0.723548   -4.617904
C       0.295446    0.117890   -5.243345
N       0.343357   -0.148464   -2.501259
H       1.115196    1.787562    0.316980
H      -0.277798    2.010862   -0.749145
H      -0.519858    1.847671    1.001611
H       0.312653   -0.535122    0.877698
H      -1.114427   -0.285168   -0.119321
H       2.299774   -1.917396   -0.482086
H       2.795394   -2.107507   -3.006514
H       0.490096    0.049645   -6.314212
H      -0.718425   -0.224199   -5.015965
H       0.400339    1.151244   -4.900153
