19

C      -0.414112    1.634225   -0.222189
C       0.063724    0.234803    0.089284
O       0.315599   -0.133621    1.214847
C       0.231039   -0.746316   -1.079106
O      -0.126462   -0.067862   -2.278669
C       1.685803   -1.296547   -1.174752
C       1.482751   -2.714757   -1.654294
C       0.219413   -3.111329   -1.502140
C      -0.638569   -2.026229   -0.894781
H       0.269978    2.117696   -0.926612
H      -1.384937    1.597141   -0.726259
H      -0.482622    2.207787    0.702507
H      -0.017497   -0.693798   -3.003218
H       2.280216   -0.671573   -1.849824
H       2.171621   -1.282081   -0.191861
H       2.294937   -3.327674   -2.028709
H      -0.163093   -4.099296   -1.732604
H      -0.821310   -2.221609    0.168579
H      -1.610818   -1.893033   -1.381251
