21

C      -0.198163    1.501321    0.038040
C       0.023930   -0.006115    0.024809
C       1.194198   -0.600771   -0.854900
C       2.153016   -0.218342    0.323325
C       0.906353   -0.654461    1.164846
C       0.812032   -2.132835    0.755116
C       0.553990   -3.266142    1.680752
O       0.515060   -4.476256    0.944893
C       1.001647   -2.095852   -0.568399
H       0.719262    2.076784    0.186293
H      -0.643861    1.827515   -0.908605
H      -0.895046    1.777577    0.837732
H      -0.933707   -0.514234   -0.126358
H       1.370541   -0.280185   -1.882185
H       3.060076   -0.816489    0.435910
H       2.389761    0.846361    0.389865
H       0.785074   -0.391537    2.217600
H       1.339955   -3.293808    2.457785
H      -0.395897   -3.092190    2.219249
H       0.362088   -5.195990    1.563464
H       1.007477   -2.906142   -1.281386
