21

O       1.105514    0.334563   -0.625109
C       0.137299   -0.358512    0.120044
C      -0.017660   -0.092605    1.638587
C      -1.564665   -0.298122    1.472255
C      -1.367195   -0.028535   -0.052067
C      -2.081086   -1.719147    1.830134
C      -2.873968   -1.562787    3.153331
C      -3.169371   -0.082241    3.194541
C      -2.466800    0.589087    2.283656
H       0.971422    1.277291   -0.480304
H       0.327869   -1.418303   -0.073518
H       0.513716   -0.736492    2.344516
H       0.216213    0.952892    1.872613
H      -1.503687    1.034857   -0.284554
H      -1.955289   -0.619724   -0.759455
H      -2.761078   -2.059065    1.041545
H      -1.277337   -2.457330    1.902553
H      -3.778344   -2.181472    3.172568
H      -2.281055   -1.863117    4.028654
H      -3.847090    0.361375    3.915912
H      -2.480720    1.665968    2.145633
