12

C      -0.018708    1.486606    0.032859
C       0.000424   -0.006053   -0.012555
N      -0.027374   -0.600211   -1.174640
C      -0.009918   -1.956870   -1.244621
O      -0.028579   -2.681549   -2.179109
O       0.041491   -2.652902    0.081217
C       0.064218   -1.907658    1.144341
F       0.108694   -2.615850    2.236377
N       0.048210   -0.626553    1.217795
H       0.872391    1.845581    0.558446
H      -0.058429    1.903064   -0.972307
H      -0.881429    1.821426    0.618222
