21

C       0.126922    1.558110   -0.204711
C       0.009073    0.054841    0.066091
C      -1.432463   -0.495002    0.083605
C      -2.278986    0.112817    1.208093
O      -2.060915   -0.308228   -1.190515
C      -1.368029   -2.040923    0.228901
O      -0.717187   -2.415948    1.410793
C      -2.745843   -2.674061    0.170664
O      -3.129207   -3.411812    1.049504
H       1.179205    1.848064   -0.276130
H      -0.344949    1.834670   -1.154623
H      -0.322755    2.163318    0.588443
H       0.555441   -0.489497   -0.713245
H       0.483894   -0.197632    1.019175
H      -2.302052    1.204845    1.142664
H      -3.311441   -0.245710    1.153535
H      -1.867484   -0.162955    2.182101
H      -2.252265    0.628757   -1.294230
H      -0.823596   -2.412290   -0.658364
H      -1.333380   -3.017539    1.860787
H      -3.363325   -2.435049   -0.711869
