20

C       0.118789    1.561185    0.023826
C       0.007229    0.035587   -0.004351
C      -1.440769   -0.532515    0.017717
C      -1.376049   -2.077404    0.016315
C      -2.209339   -0.052144    1.270894
O      -1.463379   -0.425168    2.419603
C      -2.185826   -0.074172   -1.158664
C      -2.806245    0.297295   -2.119852
H       1.162987    1.867437   -0.092358
H      -0.457879    2.017889   -0.786427
H      -0.237433    1.973201    0.972939
H       0.496956   -0.350741   -0.905238
H       0.535062   -0.387932    0.855288
H      -0.892644   -2.425969    0.931907
H      -2.380201   -2.508411   -0.034220
H      -0.808423   -2.438044   -0.845686
H      -2.349472    1.036210    1.220563
H      -3.206584   -0.516287    1.271135
H      -1.954790   -0.152640    3.199334
H      -3.350215    0.622422   -2.971952
