19

O       0.168389    1.360506   -0.193614
C       0.065825   -0.013610    0.168529
C      -1.341354   -0.523584    0.160088
C      -2.042206   -0.949656   -1.128944
C      -1.945990   -1.938906   -0.026626
O      -1.381888   -3.179271   -0.206641
C      -2.965086   -1.670766    1.081695
O      -2.719235   -2.499197    2.211138
C      -2.427879   -0.210981    1.203523
H      -0.247352    1.457471   -1.057004
H       0.687223   -0.649126   -0.482716
H       0.490444   -0.072615    1.177698
H      -2.994516   -0.510624   -1.424614
H      -1.370651   -1.161014   -1.957331
H      -1.446505   -3.615970    0.654788
H      -4.021572   -1.811294    0.830818
H      -1.953424   -2.149677    2.680461
H      -2.031101   -0.012893    2.205362
H      -3.130896    0.589549    0.951294
