15

N      -0.059529   -1.151213   -0.021613
C      -0.041273    0.006004    0.012598
C      -0.011237    1.422065    0.044030
C      -0.993833    2.376470    0.697881
N      -0.306084    3.241556    1.636766
C       1.149254    3.079626    1.379239
C       1.202107    2.392256    0.024646
O       0.524273    3.260261   -0.942824
C      -0.671380    2.512426   -0.781550
H      -1.969982    1.994948    0.976573
H      -0.573609    4.205655    1.469333
H       1.655819    4.047993    1.365111
H       1.613372    2.453504    2.153045
H       2.162717    2.034151   -0.343958
H      -1.369909    2.453402   -1.607948
