20

C      -0.008154    1.603710   -0.065077
C      -0.009856    0.074271    0.002461
C      -1.422705   -0.562332    0.030732
C      -1.364314   -2.098479   -0.111861
C      -0.959383   -2.763823    1.177732
C      -1.268295   -2.189745    2.340449
N      -1.927215   -0.956084    2.397275
C      -2.138811   -0.130861    1.311353
O      -2.791158    0.889861    1.412275
H       1.017054    1.987027   -0.070834
H      -0.503166    1.956714   -0.976110
H      -0.536639    2.046457    0.782706
H       0.511981   -0.329877   -0.874189
H       0.556942   -0.266969    0.877041
H      -2.004180   -0.136206   -0.792212
H      -2.348083   -2.479199   -0.425855
H      -0.671660   -2.357501   -0.920506
H      -0.449610   -3.718919    1.165434
H      -1.037995   -2.626246    3.305124
H      -2.319659   -0.630309    3.267652
