16

C      -0.038506    1.393352   -0.306729
C       1.429576    1.589030    0.118418
C       1.272812    0.182990    0.721315
O      -0.078298    0.079185    0.294371
C       2.224194   -1.031662    0.579361
C       3.142024   -0.397073    1.650673
C       1.676298   -0.303069    2.136095
O       1.466111   -1.694004    1.667830
H      -0.764312    2.072437    0.154444
H      -0.222037    1.351340   -1.386166
H       2.150208    1.670061   -0.697307
H       1.609527    2.389001    0.838799
H       2.476258   -1.627617   -0.298242
H       3.744384   -1.119240    2.200669
H       3.682361    0.522450    1.410485
H       1.275659   -0.031055    3.113021
