21

C       0.112095    1.525856   -0.015901
C      -0.012985    0.020254    0.033338
C      -0.954191   -0.635538    1.011329
C       0.542980   -0.759981    1.209198
C       1.317756   -2.019276    0.915089
C       0.685956   -3.391453    0.801282
C       1.096087   -2.646013   -0.436585
O       0.067982   -2.092704   -1.208728
C       0.152111   -0.674397   -1.311064
H       1.084633    1.833694   -0.419102
H      -0.664997    1.972458   -0.648740
H       0.014359    1.961838    0.983281
H      -1.493565    0.000053    1.705853
H      -1.507471   -1.503765    0.672767
H       0.950934   -0.171031    2.025313
H       2.342044   -1.996655    1.274073
H       1.276380   -4.249982    1.102033
H      -0.378044   -3.482628    0.986622
H       1.946274   -2.999398   -1.019017
H      -0.647866   -0.381902   -2.000183
H       1.112495   -0.378552   -1.766117
