15

O      -0.062231   -0.055238    0.108542
C      -0.025423    1.152582    0.073183
N       1.131336    1.893105    0.025284
C       1.235635    3.355485   -0.026968
C       2.794867    3.551050   -0.061286
N       3.385501    2.186189   -0.063087
C       2.420331    1.360495   -0.012486
C       3.241686    4.332455   -1.209055
C       3.581559    4.987013   -2.156947
H      -0.927194    1.793291    0.078657
H       0.757935    3.756272   -0.923749
H       0.783894    3.816515    0.854891
H       3.131369    4.052384    0.854007
H       2.524232    0.282820    0.006924
H       3.897569    5.561442   -2.992628
