20

C      -0.301027    2.010901   -0.631834
C       0.169426    0.652727   -0.114471
N       0.594659   -0.216743   -1.204681
C       1.139609   -1.536327   -0.907867
C       0.104620   -2.529934   -0.458857
C       0.219911   -2.184481   -1.927707
C      -0.351253   -0.782651   -2.218561
C      -1.845662   -0.646568   -2.028230
O      -2.602378   -0.346941   -2.918553
H       0.485936    2.488789   -1.221802
H      -1.186846    1.916057   -1.268894
H      -0.564252    2.668312    0.202096
H       1.049014    0.787976    0.527291
H      -0.608784    0.205129    0.528282
H       2.203038   -1.666296   -0.737002
H       0.489957   -3.514000   -0.209149
H      -0.747045   -2.226726    0.141081
H       0.444696   -2.919832   -2.687570
H      -0.114306   -0.422119   -3.224606
H      -2.229156   -0.873609   -1.009836
