14

C      -0.010538    1.458384    0.008337
N       0.006360    0.000039   -0.028828
C      -0.100323   -0.696672   -1.195139
C      -0.080958   -2.056761   -1.193511
N       0.044838   -2.772362   -0.035499
C       0.146965   -2.114123    1.079725
C       0.139306   -0.658187    1.208835
O       0.234269   -0.025875    2.248670
H       0.914998    1.828370    0.455744
H      -0.117374    1.842008   -1.006628
H      -0.839281    1.803561    0.631000
H      -0.199128   -0.110647   -2.101315
H      -0.165377   -2.614619   -2.117352
H       0.247798   -2.666590    2.010873
