21

C      -0.000884    1.540500    0.054822
C      -0.019452    0.038532   -0.025754
C      -0.072807   -0.613824   -1.189902
C      -0.055101   -2.114893   -1.333602
C       0.235801   -2.814118   -0.018658
C       0.632169   -4.225269    0.003306
O       1.609254   -3.196292    0.186276
C      -0.416061   -2.159613    1.178776
C       0.050598   -0.700651    1.293573
H       0.894335    1.895163    0.582468
H      -0.013781    2.001269   -0.936604
H      -0.862535    1.918789    0.620326
H      -0.124949   -0.045127   -2.116255
H      -1.020396   -2.463537   -1.731713
H       0.702931   -2.419489   -2.065282
H       0.421472   -4.834177    0.882444
H       0.709297   -4.780597   -0.931645
H      -1.505609   -2.187575    1.049577
H      -0.175226   -2.716385    2.089156
H       1.084801   -0.676776    1.665767
H      -0.548986   -0.173722    2.046398
