17

C      -0.034287    1.464942    0.074821
C       0.013598   -0.016240   -0.010931
C       0.018871   -0.887545   -1.043201
C      -0.029554   -0.674060   -2.476626
O      -0.085648   -1.567069   -3.298336
C       0.077242   -2.235950   -0.304933
C      -1.013059   -2.041267    0.788777
C       0.069793   -0.992967    1.184992
O       1.079532   -1.947035    0.732517
H       0.847487    1.847150    0.604585
H      -0.077349    1.939724   -0.907825
H      -0.907943    1.792921    0.652552
H      -0.013970    0.391646   -2.795307
H       0.239044   -3.150219   -0.869845
H      -2.005524   -1.697785    0.489060
H      -1.058152   -2.872091    1.495721
H       0.217272   -0.606390    2.193293
