20

C       0.198286    0.701707    0.798621
O      -0.556937    0.132009   -0.262821
C      -1.275654   -0.961844    0.062667
N      -1.984812   -1.526622   -0.810064
C      -2.755786   -2.721343   -0.464038
C      -2.370201   -3.848043   -1.442089
C      -2.663726   -3.181646    0.929986
C      -2.582033   -3.566406    2.069471
C      -2.502614   -4.046934    3.442378
H       0.724688    1.558450    0.376048
H      -0.449310    1.046014    1.614300
H       0.932964   -0.008534    1.197632
H      -1.181402   -1.284675    1.107178
H      -3.806686   -2.466196   -0.662350
H      -2.472187   -3.486641   -2.468160
H      -1.331664   -4.149240   -1.279927
H      -3.013633   -4.719949   -1.297296
H      -3.106627   -4.950835    3.578493
H      -1.472376   -4.294438    3.721238
H      -2.867950   -3.296224    4.151856
