23

C       0.010948    1.507172   -0.035624
C       0.020615    0.000847   -0.038466
C       0.609310   -0.943304   -1.115595
C       0.030755   -1.893537   -0.038320
C       0.037218   -3.399878   -0.035244
C       0.603580   -0.943166    1.068253
C      -0.340368   -0.948133    2.271813
C      -1.709634   -0.955507    1.529928
C      -1.216946   -0.952988    0.081870
H       1.030078    1.909175   -0.062901
H      -0.525662    1.900779   -0.906314
H      -0.477998    1.902065    0.862339
H       0.113402   -0.946030   -2.092644
H       1.698603   -0.937485   -1.233765
H       1.060589   -3.790948   -0.062706
H      -0.447252   -3.799844    0.862899
H      -0.495355   -3.799347   -0.905743
H       1.682244   -0.937376    1.247308
H      -0.198841   -1.828433    2.907542
H      -0.208265   -0.066289    2.907431
H      -2.312146   -1.839801    1.762547
H      -2.321554   -0.077658    1.762405
H      -1.956031   -0.957008   -0.723951
