15

N       0.228712    0.911785   -0.005481
C      -0.451153   -0.138575    0.519462
O      -0.149563   -0.664346    1.575065
C      -1.648401   -0.619652   -0.314829
C      -1.466160   -2.081653   -0.730511
O      -1.229973   -2.392435   -1.867381
C      -1.600469   -3.092986    0.412954
C      -1.273931   -4.459651    0.031383
N      -1.017580   -5.549778   -0.249103
H       1.055260    1.228941    0.475948
H       0.031685    1.278690   -0.919624
H      -2.532250   -0.522214    0.324306
H      -1.792995   -0.031286   -1.222035
H      -0.967491   -2.746039    1.239876
H      -2.630825   -3.049781    0.789625
