20

C       0.050757    1.459600   -0.119757
N      -0.023256    0.016710    0.033750
C      -1.400556   -0.506739   -0.031058
C      -1.603305   -1.490103    1.140779
O      -0.627746   -2.540014    1.003073
C       0.703322   -2.029161    1.072680
C       0.659248   -0.498430    1.243557
C      -0.148595   -0.209366    2.493898
C      -1.371817   -0.740329    2.430895
H       1.098400    1.779089   -0.108811
H      -0.372897    1.742763   -1.089049
H      -0.491145    2.021947    0.662067
H      -2.141274    0.302599    0.044540
H      -1.565609   -1.031145   -0.980692
H      -2.577469   -1.977420    1.085494
H       1.228526   -2.496163    1.916120
H       1.224940   -2.276597    0.139852
H       1.671926   -0.090884    1.275131
H       0.243764    0.356247    3.332123
H      -2.133728   -0.662386    3.197992
