25

C       0.152090    1.527950   -0.032184
C       0.034923    0.000640    0.072776
C       0.651742   -0.497279    1.387897
C      -1.419232   -0.492337   -0.038943
C      -2.165313   -0.151627   -1.342109
C      -1.470751   -0.713943   -2.600842
C      -3.585638   -0.729733   -1.301922
C      -4.684133    0.124021   -1.909571
O      -3.814071   -1.819424   -0.827914
H       1.191975    1.849255    0.088193
H      -0.197304    1.905415   -0.998315
H      -0.438397    2.019759    0.750732
H       0.614906   -0.440840   -0.748772
H       0.119620   -0.081099    2.251809
H       0.603549   -1.588546    1.463140
H       1.702323   -0.199497    1.470784
H      -1.448317   -1.580170    0.084507
H      -1.989881   -0.081267    0.805863
H      -2.247950    0.935991   -1.455044
H      -2.057163   -0.517075   -3.504533
H      -0.486337   -0.261108   -2.744561
H      -1.343629   -1.797404   -2.511948
H      -4.397504    0.483410   -2.903910
H      -5.614456   -0.442271   -1.968480
H      -4.839093    1.013706   -1.286932
