16

O       0.067610    1.308185   -0.316924
C       0.063783   -0.008730    0.214987
C      -1.316180   -0.625814    0.178152
C      -1.918666   -1.246359   -1.065094
O      -0.913304   -1.923464   -1.832094
C      -0.670687   -2.857682   -0.746340
C      -1.636464   -2.097188    0.162678
O      -2.418849   -2.653728    1.149324
H      -0.185573    1.238858   -1.243517
H       0.781341   -0.649946   -0.313548
H       0.404791    0.086421    1.250886
H      -2.067308   -0.082005    0.748537
H      -2.815764   -0.915683   -1.575060
H      -1.041059   -3.856853   -1.012334
H       0.385382   -2.921483   -0.463194
H      -2.930926   -3.375253    0.765284
