23

C      -0.135251    1.622222    0.157687
C       0.023116    0.107569    0.107771
C       1.169467   -0.573565   -0.707765
C       2.153152   -0.119791    0.410374
C       0.890974   -0.663116    1.166856
C       0.678372   -0.750073    2.655233
C       0.922660   -1.860976    0.158468
C      -0.293987   -2.752075   -0.077045
O       2.042043   -2.706553    0.386761
H       0.797523    2.166594    0.318183
H      -0.570727    1.986583   -0.779625
H      -0.823434    1.904011    0.963004
H      -0.966729   -0.324552   -0.054964
H       1.325927   -0.525523   -1.788071
H       3.066913   -0.698301    0.518944
H       2.348780    0.948607    0.490818
H       0.736066    0.239060    3.122740
H      -0.303924   -1.174488    2.892988
H       1.440599   -1.386026    3.117486
H      -1.227342   -2.213910   -0.242255
H      -0.125323   -3.379974   -0.961958
H      -0.428179   -3.421859    0.778087
H       2.075707   -3.352210   -0.326121
