17

N      -0.039139    1.220041   -0.004433
C      -0.118505   -0.019444   -0.228709
O      -1.134957   -0.734645    0.288750
C      -1.084634   -2.148708    0.100779
C      -2.474406   -2.707205    0.381942
C      -2.500457   -4.210606    0.261604
C      -3.630562   -4.929669   -0.336877
O      -2.416553   -4.742409   -1.066050
H       0.770182    1.607241   -0.485183
H       0.573770   -0.618057   -0.837900
H      -0.783772   -2.390462   -0.926516
H      -0.344286   -2.586305    0.785332
H      -2.781653   -2.412040    1.392035
H      -3.186626   -2.264797   -0.321584
H      -1.887699   -4.751255    0.986139
H      -3.842393   -5.954356   -0.035273
H      -4.487814   -4.366900   -0.704071
