13

N       0.016165    1.303176    0.089394
C      -0.004795   -0.046049    0.040447
N      -1.141643   -0.694860    0.037249
N      -1.046669   -2.041729    0.025469
N       0.036907   -2.782674    0.012211
C       1.184663   -2.150172    0.002503
C       1.307722   -0.715392    0.007262
N       2.366535    0.024310   -0.019924
H       0.919206    1.726937   -0.062701
H      -0.830345    1.824119   -0.057881
H      -1.924922   -2.532420    0.030301
H       2.070812   -2.776840   -0.012695
H       3.212145   -0.547376   -0.049478
