24

C       0.179156    1.357005   -0.289194
C       0.321810   -0.136293    0.029023
C       0.747565   -0.495090    1.476587
C      -0.280871    0.063010    2.476396
C       0.865026   -2.046698    1.637466
C       2.344845   -2.354937    1.783278
C       3.274045   -1.896480    0.720062
N       3.124386   -1.115200    1.955958
C       2.186021    0.014500    1.841361
H       1.107951    1.907449   -0.106911
H      -0.080615    1.496852   -1.343251
H      -0.608117    1.828910    0.305822
H      -0.638341   -0.630382   -0.171857
H       1.033383   -0.579179   -0.677421
H      -1.290355   -0.299260    2.250193
H      -0.034159   -0.246275    3.497358
H      -0.309000    1.156933    2.463995
H       0.334756   -2.379396    2.535860
H       0.413551   -2.575580    0.791322
H       2.630668   -3.193684    2.412903
H       4.243737   -2.373158    0.603057
H       2.855204   -1.505665   -0.203566
H       2.570240    0.738012    1.114953
H       2.168038    0.518067    2.813990
