17

N       0.710816    0.253826    0.925339
C      -0.230172    0.322692   -0.074920
O      -0.132343    1.098810   -1.009986
C      -1.357077   -0.641673    0.018915
C      -1.418221   -1.776707    0.731973
C      -2.739868   -2.439453    0.560273
N      -3.864583   -1.575264    1.032669
C      -3.503520   -1.588881   -0.398977
C      -2.607820   -0.428952   -0.814990
H       1.404598    0.985688    0.921247
H       0.452959   -0.120817    1.822909
H      -0.627467   -2.178099    1.354891
H      -2.846099   -3.516601    0.623629
H      -4.686062   -2.165331    1.157771
H      -4.204429   -2.015887   -1.107871
H      -3.071466    0.542536   -0.614414
H      -2.367247   -0.451430   -1.883579
