17

C       0.041530    1.590796    0.025000
C      -0.024824    0.059450   -0.018623
C       0.733808   -0.577279    1.163686
C      -1.443228   -0.427106   -0.058343
N      -2.484292    0.324751    0.088922
O      -3.601608   -0.545999   -0.008349
C      -3.183419   -1.832404   -0.220653
O      -3.890620   -2.789891   -0.348611
N      -1.798821   -1.739454   -0.247601
H       1.085906    1.914152    0.010361
H      -0.475013    2.036029   -0.827992
H      -0.427350    1.975053    0.934664
H       0.450302   -0.285336   -0.948359
H       0.298116   -0.259933    2.116000
H       0.711284   -1.670974    1.130244
H       1.781370   -0.264281    1.145460
H      -1.195988   -2.529182   -0.398666
