21

C       0.163354    1.329014   -0.521251
C      -0.017027    0.017347    0.213576
C       1.123616   -0.958461    0.367275
C       0.559735   -0.260019    1.586549
C       1.398192    0.749106    2.352042
N       2.405551    0.188606    3.259697
C       1.848380   -0.555952    4.382598
C       2.911008   -1.007962    5.287088
N       3.744893   -1.388572    5.989775
H       1.170527    1.737883   -0.401121
H      -0.001596    1.189051   -1.595073
H      -0.547688    2.086434   -0.172967
H      -0.990457   -0.436663    0.044352
H       0.938831   -2.018602    0.232910
H       2.099183   -0.633237    0.014922
H      -0.076567   -0.874442    2.219216
H       1.933588    1.400470    1.654738
H       0.748772    1.403264    2.948736
H       3.037162   -0.412321    2.738885
H       1.180869    0.109850    4.944388
H       1.249079   -1.441877    4.109397
