20

C      -0.720963    1.283497    0.001640
C       0.053754   -0.024355    0.031143
C       1.252082   -0.216635   -0.956034
C       2.178225   -0.634032    0.230142
C       2.894269   -1.961958    0.155970
C       2.891344    0.573394    0.865038
O       1.720284    0.922780    1.638536
C       1.021643   -0.268203    1.213784
H      -0.049961    2.126833    0.186512
H      -1.206176    1.430981   -0.969208
H      -1.499975    1.301943    0.771828
H      -0.633159   -0.875291   -0.048255
H       1.100506   -0.997567   -1.705594
H       1.570722    0.695122   -1.470985
H       3.685928   -1.938439   -0.603169
H       3.358745   -2.221145    1.113724
H       2.207291   -2.771334   -0.114469
H       3.733218    0.307953    1.520327
H       3.204145    1.380385    0.190020
H       0.686589   -0.871673    2.063867
