12

C      -0.013009    1.308062    0.009755
C       1.287227    1.797060   -0.000656
C       2.017473    3.002995   -0.001560
N       3.327232    3.008822   -0.014726
C       3.942920    1.788387   -0.027426
N       3.392401    0.600813   -0.028224
N       2.051920    0.640032   -0.014532
N       1.291137   -0.453773   -0.012639
N       0.036485   -0.035890    0.002223
H      -0.947310    1.845570    0.021975
H       1.499348    3.958866    0.008717
H       5.027070    1.792410   -0.038336
