20

C      -0.026951    1.416368   -0.160589
N       0.050858   -0.029019   -0.154856
C      -1.021215   -0.665782    0.000089
O      -1.027781   -2.015412   -0.004601
C      -2.280545   -2.638150    0.270342
C      -2.129844   -4.126134   -0.010106
C      -3.426452   -4.899795    0.275415
C      -3.239488   -6.391757    0.103431
O      -3.926328   -7.096762   -0.587854
H       0.618094    1.822153    0.626990
H       0.355078    1.801414   -1.112966
H      -1.045204    1.812585   -0.011959
H      -2.013058   -0.205632    0.138941
H      -2.561460   -2.471031    1.320350
H      -3.067741   -2.203404   -0.361608
H      -1.830813   -4.259993   -1.055325
H      -1.311674   -4.516945    0.605911
H      -3.728772   -4.729112    1.319812
H      -4.248443   -4.577020   -0.370362
H      -2.385897   -6.813683    0.684946
