16

O      -0.043703   -0.022063   -0.013495
C       0.021322    1.190152   -0.010619
N       1.174306    1.907184    0.008201
C       2.477051    1.266498   -0.184067
C       3.278966    2.324944   -0.916442
N       2.590676    2.825421   -2.123292
C       2.525732    3.601774   -0.871035
C       1.237608    3.364138   -0.104738
H      -0.873728    1.843934   -0.014850
H       2.954501    1.021483    0.774373
H       2.337416    0.339726   -0.745120
H       4.362213    2.289809   -0.888046
H       3.272308    3.251189   -2.746621
H       3.014763    4.567039   -0.802233
H       0.352119    3.745688   -0.622332
H       1.299799    3.849793    0.879827
