16

O       0.657964    0.754273   -0.726883
C      -0.031055   -0.194310    0.043677
C       0.103404   -0.171636    1.597535
C      -1.389389   -0.514014    1.657573
C      -1.999170   -1.662032    2.361578
N      -2.340516   -0.270142    2.733376
C      -1.577551   -0.093718    0.197233
H       0.388084    1.630981   -0.433153
H       0.262303   -1.168176   -0.356817
H       0.819890   -0.851396    2.065834
H       0.297888    0.849091    1.950981
H      -2.810361   -2.219587    1.900042
H      -1.373770   -2.245101    3.033731
H      -1.846321   -0.009217    3.584076
H      -1.915507    0.947166    0.125530
H      -2.201779   -0.714153   -0.449488
