19

C      -0.009658    1.487718   -0.034627
C       0.037180   -0.007092    0.222199
O       1.024271   -0.549537    0.665841
C      -1.236726   -0.777996   -0.096300
C      -1.058270   -2.291862   -0.059015
C      -2.352456   -3.038541    0.236430
O      -3.319639   -2.508597    0.724863
C      -2.327378   -4.522215   -0.115545
O      -3.499277   -5.143342    0.338938
H       0.888716    1.962808    0.360822
H      -0.073383    1.675086   -1.113092
H      -0.902225    1.933444    0.417154
H      -1.998169   -0.491627    0.641961
H      -1.635904   -0.437488   -1.059262
H      -0.608741   -2.672295   -0.983771
H      -0.337908   -2.541769    0.731661
H      -2.206341   -4.589117   -1.212063
H      -1.411487   -4.957084    0.321418
H      -3.453913   -6.074541    0.103727
