20

C       0.014875    1.506826    0.066583
C       0.017208   -0.011649    0.019746
O       0.690783   -0.497202    1.164017
C       0.752278   -1.903211    1.223022
C       1.478426   -2.297730    2.520361
C       0.719076   -1.807093    3.768109
C       1.690670   -3.742786    2.550055
C       1.839694   -4.935610    2.569283
H       1.038512    1.891714    0.078732
H      -0.499547    1.914350   -0.808751
H      -0.495452    1.862235    0.966283
H      -1.014656   -0.400909   -0.006120
H       0.518175   -0.370579   -0.895237
H      -0.259472   -2.342591    1.214770
H       1.293874   -2.308024    0.353472
H       2.457599   -1.800872    2.494797
H       0.564622   -0.728285    3.702746
H      -0.256799   -2.297509    3.839624
H       1.280459   -2.034552    4.677659
H       1.984680   -5.987209    2.590856
