18

C      -0.079549    1.498027    0.007361
C      -0.058727   -0.031546   -0.006324
C      -1.439118   -0.571631   -0.361572
C       1.245100   -0.625956   -0.685192
O       1.983558   -0.204210    0.506749
C       0.770634   -0.649171    1.195768
C       0.779307   -2.149995    0.867648
C       1.105926   -2.134029   -0.427093
H       0.899354    1.906643    0.258234
H      -0.381861    1.885699   -0.972388
H      -0.810963    1.864456    0.736993
H      -1.749071   -0.200899   -1.345402
H      -1.474229   -1.661366   -0.381196
H      -2.182198   -0.217502    0.362181
H       1.653816   -0.260310   -1.627498
H       0.681452   -0.307852    2.227383
H       0.552836   -2.969642    1.533244
H       1.227032   -2.936678   -1.139285
