18

C       0.266623    0.940338   -1.847158
C       0.277012   -0.331436   -1.018101
C      -1.079107   -0.717501   -0.460839
C       1.266240   -1.403685   -1.341624
N       1.390089   -0.636978   -0.100799
C       2.512446    0.283466    0.014291
C       3.666060   -0.396154    0.617622
N       4.586261   -0.920779    1.077705
H       1.233395    1.164476   -2.303238
H      -0.459686    0.842527   -2.660492
H      -0.037102    1.801709   -1.240912
H      -1.787630   -0.918964   -1.271901
H      -0.997976   -1.609155    0.164385
H      -1.492453    0.091035    0.152633
H       1.014269   -2.453946   -1.221611
H       1.982066   -1.199721   -2.137318
H       2.850531    0.721840   -0.938072
H       2.224895    1.115853    0.667230
