23

C       0.000441    1.470614    0.135970
C       0.107126   -0.033069   -0.049675
C       1.016162   -0.510288   -1.187669
C       1.352422   -1.917989   -0.723802
C       0.767518   -3.114735   -1.432094
C       2.251804   -2.840345   -1.495324
C       1.348948   -1.833872    0.812864
C       2.725432   -1.816872    1.469883
O       0.692749   -0.598493    1.124379
H       0.993718    1.910369    0.269801
H      -0.474217    1.932907   -0.735454
H      -0.600220    1.706187    1.019040
H      -0.901861   -0.456055   -0.196668
H       0.531736   -0.483674   -2.167596
H       1.913500    0.120253   -1.231883
H       0.433297   -3.952531   -0.827853
H       0.174350   -2.945794   -2.325357
H       2.669349   -2.480746   -2.430466
H       2.914287   -3.499702   -0.944099
H       0.760687   -2.664152    1.233323
H       3.363753   -1.052618    1.016241
H       2.622840   -1.590994    2.535170
H       3.221077   -2.787882    1.372973
