18

O      -0.448110    0.384286    0.461411
C       0.367433    0.804381   -0.321641
C       1.291839    1.943956   -0.048941
C       1.377237    2.409470    1.391157
C       2.008629    3.762225    1.557933
C       2.181635    4.635904    0.567525
C       1.753513    4.385868   -0.852822
C       1.499268    2.924232   -1.170513
N       2.507481    1.903467   -0.903541
H       0.492899    0.367147   -1.336606
H       0.361364    2.403613    1.807650
H       1.925003    1.662174    1.981684
H       2.327491    4.022645    2.563802
H       2.638027    5.600354    0.773295
H       0.836305    4.953050   -1.068395
H       2.505743    4.778841   -1.551305
H       0.958337    2.754074   -2.100064
H       3.276711    2.315121   -0.376313
