20

C      -0.623310    1.307378   -0.045412
C       0.125671   -0.016288   -0.108805
C       1.513362   -0.042406   -0.822559
C       2.029307   -0.902276    0.338035
O       2.988627   -1.602444    0.496260
C       0.778153   -0.621441    1.198576
C       1.095291    0.403641    2.296605
C       0.106962   -1.863057    1.781817
H       0.001562    2.112140    0.354607
H      -0.951017    1.612227   -1.045085
H      -1.516238    1.232962    0.584795
H      -0.525220   -0.776858   -0.553052
H       1.581461   -0.480669   -1.821282
H       2.002831    0.938676   -0.843181
H       1.626806    1.278891    1.910519
H       0.176226    0.754144    2.778490
H       1.727789   -0.054823    3.062917
H       0.757769   -2.341302    2.520635
H      -0.834824   -1.601119    2.277553
H      -0.113756   -2.601690    1.004671
