20

C      -0.248441    1.596339   -0.183051
C       0.119279    0.116605    0.037324
C       0.766316   -0.514663   -1.156633
C       2.034321   -0.957981   -1.252103
C       2.338919   -1.585597   -2.601248
C       1.131919   -1.135899   -3.459269
C       0.018744   -0.787630   -2.444182
C       2.993450   -0.910675   -0.205164
N       3.792934   -0.880558    0.634104
H       0.643979    2.191664   -0.397258
H      -0.946267    1.720640   -1.016674
H      -0.722731    2.006316    0.713042
H       0.783926    0.031008    0.902583
H      -0.794346   -0.443322    0.280311
H       3.298366   -1.257088   -3.011703
H       2.395861   -2.677912   -2.506645
H       1.402692   -0.237429   -4.022118
H       0.824574   -1.893306   -4.183747
H      -0.674749   -1.627201   -2.287742
H      -0.597649    0.058703   -2.764721
