21

C       0.242839    1.530521   -0.288872
C       0.034976    0.048729   -0.032434
C       0.862684   -1.007177   -0.782744
C       2.112306   -0.672288   -1.163400
C       3.098566   -1.098032   -0.078828
C       2.100444   -1.374187    1.063146
C       0.876575   -1.941676    0.439398
C       0.671243   -0.681721    1.226813
C       0.083475   -0.527889    2.608143
H       1.303117    1.798109   -0.251624
H      -0.144972    1.820623   -1.271617
H      -0.288739    2.126226    0.461356
H      -1.039847   -0.177108    0.014171
H       2.323614    0.203238   -1.770214
H       3.718165   -1.988005   -0.265307
H       3.789323   -0.265645    0.106441
H       2.467989   -1.773062    2.007471
H       0.424773   -2.920723    0.541354
H       0.438034   -1.313152    3.283468
H       0.348636    0.437704    3.053884
H      -1.010952   -0.588745    2.574183
