21

C       0.302856    1.507335    0.205190
C      -0.287124    0.148589   -0.187468
C       0.403124   -0.454662   -1.389902
N       1.712250   -1.103936   -1.134708
C       0.579355   -1.912443   -1.572910
C       0.103693   -3.144550   -0.794324
N       0.126046   -3.988806   -2.049232
C      -0.825163   -3.351765   -2.976308
C       0.515524   -2.744484   -2.831584
H       1.367836    1.407773    0.435796
H       0.200785    2.234801   -0.608052
H      -0.199808    1.919611    1.085317
H      -0.199810   -0.548528    0.653455
H      -1.358437    0.251131   -0.404967
H       0.319574    0.131245   -2.306574
H       2.353609   -0.940476   -1.907842
H       0.850132   -3.503351   -0.083204
H      -0.879089   -3.103522   -0.312378
H      -1.018101   -3.949405   -3.862433
H      -1.696184   -2.836943   -2.574625
H       1.268197   -2.769515   -3.615041
