16

O      -0.174333    0.031349    0.215876
C      -0.006418    1.215559    0.046736
C       1.299440    1.875145    0.009289
N       1.461686    3.313366    0.337540
C       1.751236    2.908083   -1.024240
C       3.161313    2.273750   -1.063906
C       4.158717    2.696271    0.040789
O       3.652242    1.677857    0.944802
C       2.704007    1.223985   -0.026547
H      -0.865143    1.910764   -0.123639
H       0.533222    3.736429    0.366455
H       1.187593    3.296859   -1.864281
H       3.537262    2.004608   -2.048166
H       5.208894    2.509736   -0.209837
H       4.035523    3.703747    0.446440
H       2.695936    0.144679   -0.185907
