22

C       0.369598    0.584009    0.582857
O      -0.089235    0.059174   -0.654597
C       0.673657   -0.923077   -1.187387
N       0.330165   -1.464115   -2.267596
C       1.136858   -2.513776   -2.866288
C       2.410953   -2.979915   -2.167053
C       2.316669   -3.837045   -0.868119
C       3.455251   -4.736387   -1.417761
C       3.180468   -4.157921   -2.831900
H       0.383911   -0.182958    1.367534
H       1.371709    1.021897    0.490960
H      -0.334794    1.367418    0.865632
H       1.565484   -1.161089   -0.593175
H       0.477499   -3.382552   -3.008787
H       1.393766   -2.182242   -3.883121
H       3.091916   -2.133491   -2.015841
H       2.483229   -3.340612    0.091830
H       1.361816   -4.370674   -0.816532
H       4.433730   -4.428639   -1.037831
H       3.358654   -5.816405   -1.284221
H       2.502527   -4.798275   -3.406591
H       4.038953   -3.912396   -3.461804
