8

N      -0.055255    1.325485    0.008972
C       0.089145   -0.029265    0.000674
O       1.146254   -0.615571   -0.011848
C      -1.265720   -0.766236    0.009701
O      -1.346337   -1.959937    0.004632
H       0.769157    1.903871    0.004481
H      -0.955423    1.772386    0.019794
H      -2.171759   -0.113973    0.021377
