24

C      -0.136082    1.606962   -0.163789
C      -0.163359    0.077085   -0.214136
C       0.937282   -0.506857   -1.109176
O       2.244451   -0.157664   -0.650562
C       0.809258   -2.017881   -1.303522
C       0.970421   -2.858135   -0.049899
N      -0.236066   -2.402526   -2.273147
C       1.183398   -2.648621   -2.602424
C       1.766976   -1.935430   -3.798838
H       0.842220    1.966788    0.167071
H      -0.327777    2.034505   -1.153956
H      -0.895825    1.995755    0.520969
H      -0.058536   -0.326459    0.803218
H      -1.129840   -0.276489   -0.590904
H       0.852930   -0.034168   -2.091417
H       2.300818   -0.386778    0.283147
H       0.179488   -2.654688    0.680420
H       0.935402   -3.925519   -0.289703
H       1.934543   -2.666959    0.434773
H      -0.693355   -3.263031   -1.981238
H       1.522977   -3.680758   -2.509464
H       1.322529   -0.948574   -3.939348
H       2.849808   -1.815828   -3.688536
H       1.579446   -2.512645   -4.710780
