11

N       0.043664    1.333249    0.144463
C      -0.052985   -0.022613    0.045699
N      -1.124006   -0.752628    0.027427
C      -0.623061   -2.057665   -0.000686
C       0.732863   -2.030182   -0.006009
O       1.116479   -0.715281    0.024786
C      -1.457944   -3.205087   -0.025755
N      -2.122182   -4.152443   -0.047767
H       0.881821    1.744795   -0.236538
H      -0.808432    1.822602   -0.082438
H       1.511602   -2.770837   -0.031460
