20

C      -1.176608    1.374079   -2.382613
C      -0.505544    0.159415   -1.739129
C       0.723793    0.552702   -0.908660
O       0.391046    1.436583    0.141892
N      -1.469254   -0.460581   -0.810852
C      -2.481538   -1.343916   -1.321065
C      -1.388647   -1.885313   -0.435968
C      -0.411388   -2.834382   -1.033063
O       0.050546   -3.770146   -0.427912
H      -0.499598    1.837975   -3.106068
H      -2.091431    1.086174   -2.909023
H      -1.427107    2.114207   -1.619719
H      -0.185520   -0.529538   -2.535474
H       1.210895   -0.359667   -0.525263
H       1.449816    1.068471   -1.545777
H      -0.387839    1.057788    0.568949
H      -3.483746   -1.240502   -0.914050
H      -2.439589   -1.617907   -2.375934
H      -1.604035   -2.091987    0.608963
H      -0.140826   -2.647216   -2.094814
