15

N      -0.196767    1.343456    0.065622
C       0.024403   -0.011395    0.036999
O       1.141337   -0.503414    0.052285
C      -1.179867   -0.842731    0.016082
C      -1.344656   -2.193945    0.003739
C      -2.745741   -2.452094   -0.015224
C      -3.348212   -1.220599   -0.016241
N      -4.663040   -0.810785   -0.104788
O      -2.429180   -0.234228    0.001110
H       0.606781    1.931221   -0.083828
H      -1.105926    1.713681   -0.153338
H      -0.539285   -2.910760    0.012283
H      -3.242772   -3.408474   -0.025128
H      -5.326206   -1.515382    0.183600
H      -4.843172    0.077740    0.343248
