16

O      -0.511177    0.175691   -0.011456
C      -0.200441    1.341365   -0.025937
C       1.181141    1.838728   -0.121489
C       1.906209    2.763963    0.808855
C       3.005613    1.649474    1.098202
C       2.541056    1.120030   -0.264730
C       3.195566    1.650546   -1.316340
C       2.448878    2.908920   -1.740786
N       1.530178    3.175046   -0.588487
H      -0.951833    2.158379    0.050781
H       1.463061    3.387068    1.579279
H       4.053679    1.943812    1.185819
H       2.686736    1.093218    1.985897
H       4.275415    1.595825   -1.419705
H       3.169694    3.723256   -1.872619
H       1.821977    2.866551   -2.639626
