15

C       0.243142    1.435802    0.075768
O       0.299070    0.002569    0.026656
C       0.891113   -0.504815   -1.053149
O       1.365813    0.131810   -1.958791
C       0.897434   -2.049576   -1.005874
O       0.412530   -2.660383   -0.082351
C       1.523086   -2.667699   -2.143663
C       2.037361   -3.234708   -3.076970
C       2.659240   -3.900316   -4.205948
H       1.251236    1.857669    0.062619
H      -0.313582    1.825483   -0.780157
H      -0.264191    1.679160    1.008453
H       2.616674   -4.989256   -4.103788
H       2.158248   -3.622829   -5.139751
H       3.710219   -3.604525   -4.295249
