17

O      -0.069050    1.382498   -0.074466
C       0.058625    0.000076   -0.003854
C       1.271588   -0.713947   -0.577170
C       0.999100   -2.152452   -0.077274
O       0.491270   -1.946344    1.277803
C      -0.343435   -0.833323    1.173643
C      -1.239215   -0.802728   -0.093936
C      -1.249644   -2.049193   -0.882121
C      -0.117084   -2.761117   -0.887502
H       0.626047    1.774640    0.466936
H       1.346385   -0.664650   -1.665740
H       2.185434   -0.304812   -0.130996
H       1.885307   -2.780094    0.004993
H      -0.710355   -0.463440    2.121954
H      -2.139372   -0.204721   -0.020394
H      -2.162429   -2.374467   -1.369879
H      -0.001531   -3.718082   -1.381341
