15

N      -0.038479    1.375461    0.154034
C       0.055801   -0.009494    0.039179
N      -1.031265   -0.764275    0.024058
N      -0.588698   -2.087450    0.069133
C       0.768297   -2.096834   -0.032180
C       1.249080   -0.796261    0.003108
C       2.680438   -0.887925    0.017451
C       2.986176   -2.223653   -0.013851
N       1.806862   -2.979470   -0.029715
H       0.636536    1.869004   -0.414596
H      -0.977719    1.700499   -0.038872
H      -1.227239   -2.776259   -0.290681
H       3.401080   -0.085980    0.052158
H       3.941517   -2.723357   -0.030886
H       1.759766   -3.980573   -0.084527
