16

O       0.108030    1.431001    0.178514
C       0.016267    0.052637    0.078561
C      -0.471068   -0.804902    1.202530
C      -1.334641   -0.655780   -0.052259
C      -2.563253    0.144613   -0.010528
N      -2.669273    1.269172    0.696828
N      -3.927727    1.683483    0.404864
C      -4.514577    0.812777   -0.435318
N      -3.686800   -0.171129   -0.725076
H      -0.739297    1.766667    0.514097
H       0.816224   -0.335396   -0.544135
H      -0.007340   -1.769400    1.380106
H      -0.831526   -0.295546    2.090133
H      -1.402181   -1.502032   -0.724812
H      -4.291366    2.525340    0.819748
H      -5.524489    0.931672   -0.798296
