16

C      -0.103899   -1.195724   -0.216296
C      -0.058108   -0.005836   -0.056445
C       0.026960    1.439307    0.149641
C       1.434130    1.958587    0.093393
C       1.939537    3.395012   -0.117351
C       3.199922    3.047376    0.712198
C       2.715747    1.657162    0.918330
N       3.601971    1.968727   -0.259433
C       2.341785    2.288007   -1.063141
H      -0.151104   -2.246272   -0.362876
H      -0.571759    1.957428   -0.611783
H      -0.428741    1.696737    1.115866
H       1.372685    4.301147   -0.278814
H       3.927743    3.645695    1.247054
H       2.968657    0.898091    1.648841
H       2.239794    2.161439   -2.133817
