21

C       0.466502    1.060752   -0.231009
O      -0.260752   -0.000130    0.361344
C       0.477456   -0.672215    1.329609
C      -0.037839   -2.006516    1.773924
C       1.233968   -1.930830    0.963208
C       1.317889   -2.407259   -0.486342
C       2.840087   -2.632184   -0.683314
O       3.491691   -2.044087    0.438552
C       2.612054   -2.201213    1.540577
H       1.399240    0.709657   -0.694136
H      -0.174339    1.502480   -0.997464
H       0.720169    1.833279    0.510481
H       0.926726   -0.019519    2.081916
H       0.018975   -2.256480    2.829040
H      -0.924869   -2.374775    1.268683
H       0.759381   -3.334419   -0.646316
H       0.909888   -1.660375   -1.171584
H       3.066230   -3.708815   -0.732117
H       3.241734   -2.159999   -1.583640
H       2.913527   -1.497629    2.322914
H       2.675938   -3.224587    1.952193
