22

C      -0.198951    1.506462    0.990846
C      -0.149114   -0.024428    1.054074
C      -1.399435   -0.648156    0.474561
N      -1.463329   -0.794745   -0.992453
C      -1.477328   -1.998613   -0.156270
C      -0.336431   -2.976855   -0.281317
C      -0.333986   -4.078231    0.756770
C       0.279689   -3.193434   -1.601221
O       0.949649   -2.434844   -0.590104
H       0.710131    1.948775    1.409440
H      -0.292927    1.844840   -0.045891
H      -1.051829    1.905002    1.552941
H       0.717809   -0.397327    0.506379
H      -0.041244   -0.350630    2.097116
H      -2.320493   -0.322351    0.961913
H      -2.395946   -0.592728   -1.340764
H      -2.432404   -2.512327   -0.037200
H      -1.252428   -4.672787    0.701158
H       0.520632   -4.742153    0.607476
H      -0.268859   -3.655466    1.765119
H       0.731896   -4.156365   -1.836254
H      -0.073705   -2.608900   -2.447840
