22

C       0.442799    0.005413    1.662283
C       0.061489   -0.190361    0.184787
C      -1.382232   -0.612113    0.021500
O      -1.496033   -1.924953    0.373023
C      -2.784513   -2.492925    0.329479
C      -3.172428   -3.284550   -0.882239
C      -2.820060   -3.983334    0.418710
N      -2.402976    0.042698   -0.336093
C      -2.341965    1.443782   -0.681895
H       1.500310    0.268855    1.756623
H      -0.147582    0.805978    2.118735
H       0.264785   -0.911918    2.229132
H       0.251387    0.725409   -0.378698
H       0.686374   -0.976143   -0.251547
H      -3.538646   -1.894686    0.826698
H      -4.206936   -3.256318   -1.205327
H      -2.445300   -3.340892   -1.684158
H      -1.864664   -4.493824    0.463446
H      -3.609788   -4.445470    1.000251
H      -1.348462    1.909499   -0.621363
H      -2.718156    1.582057   -1.702692
H      -3.013850    2.007680   -0.023463
