23

C      -0.121900    1.509329    0.015355
C       0.022862   -0.008122    0.013052
C       0.841000   -0.602279   -1.178486
C       2.116045   -0.418304   -0.305579
C       1.163002   -0.595123    0.916499
C       0.903910   -2.075841    1.091606
C       0.596033   -2.808489    0.016439
C       0.319237   -4.283052    0.047366
C       0.523579   -2.100330   -1.327280
H       0.831882    2.022789   -0.142391
H      -0.804786    1.834190   -0.778247
H      -0.531850    1.861067    0.968735
H      -0.957389   -0.469010    0.175821
H       0.791914   -0.083292   -2.140470
H       2.922371   -1.147688   -0.415495
H       2.525599    0.590850   -0.381770
H       1.401622   -0.085189    1.852329
H       0.971549   -2.522311    2.080114
H       0.396300   -4.686170    1.061119
H      -0.685957   -4.509033   -0.332692
H       1.021267   -4.834518   -0.592176
H      -0.477011   -2.235241   -1.764784
H       1.221804   -2.571725   -2.035131
