17

O      -0.786656    0.703196    0.652390
C      -0.085447    1.101700   -0.242333
C       1.166460    1.921890   -0.062631
C       1.522166    2.153615    1.445906
N       2.504639    1.013733    1.345278
C       2.472868    1.132393   -0.033866
N       3.247096    1.126920   -1.033994
C       2.508744    1.901922   -2.067874
C       1.488293    2.808194   -1.283022
H      -0.335490    0.884846   -1.304918
H       2.003109    3.118499    1.632573
H       0.707315    1.960923    2.143205
H       3.392128    1.026056    1.834165
H       3.219190    2.499463   -2.645607
H       1.999878    1.233694   -2.775104
H       0.609502    3.079083   -1.876118
H       1.981365    3.732566   -0.968527
