15

C      -0.084615   -1.227724   -0.060776
C      -0.018226   -0.029138   -0.000063
C       0.042843    1.412874    0.030535
N       0.066773    2.107743    1.424626
C       1.539845    1.660860    1.492046
C       1.417876    2.160752    0.031611
C       0.611321    3.322996    0.655443
C       2.416658    2.197802   -1.016126
N       3.211579    2.231147   -1.854883
H      -0.143088   -2.287517   -0.110614
H      -0.718224    1.851119   -0.620727
H       2.143528    2.260191    2.175463
H       1.671804    0.591416    1.652722
H      -0.130848    3.823331    0.029680
H       1.155736    4.026461    1.286668
