22

C      -0.120853    1.547940   -0.014709
C      -0.101246    0.027285   -0.075448
O      -1.364001   -0.506094   -0.408542
C       1.129559   -0.559900   -0.830784
N       1.800479   -0.746556    0.472184
C       2.618235   -1.935143    0.646545
C       3.480970   -1.865403    1.904491
O       2.717682   -1.789786    3.100435
C       0.498485   -0.654919    1.173854
H       0.855671    1.932523    0.292570
H      -0.353831    1.974118   -0.999047
H      -0.876799    1.893361    0.697739
H      -1.731643    0.014610   -1.130584
H       0.853058   -1.505486   -1.321784
H       1.668974    0.079792   -1.539417
H       2.002389   -2.853962    0.675469
H       3.285244   -2.015862   -0.221761
H       4.080551   -2.779090    1.982972
H       4.172385   -1.014135    1.822051
H       2.355721   -0.900523    3.153406
H       0.499263   -0.082336    2.108773
H       0.024870   -1.631670    1.348684
