12

O       0.103258    1.356767   -0.009786
C       0.017336   -0.015318   -0.018855
C      -0.425085   -0.716461    1.224656
O      -0.717100    0.155776    2.269477
C      -1.358389   -0.720658    0.001402
C      -2.553653    0.057729    0.089621
N      -3.517893    0.686725    0.212002
H      -0.182943    1.647769    0.868996
H       0.763763   -0.480929   -0.653848
H       0.016675   -1.666710    1.516512
H      -1.631097    0.032264    2.552458
H      -1.446656   -1.651766   -0.548029
