20

C       0.262688    1.645734   -0.089182
C       0.152393    0.122480   -0.015463
C       0.989449   -0.600853   -1.101701
O       1.595833   -1.726293   -0.484938
C       1.929895   -1.364766    0.847573
C       3.262990   -0.623057    0.941348
C       0.679882   -0.545818    1.306190
C       0.926192    0.373318    2.408443
N       1.120907    1.097845    3.288415
H       1.296277    1.981656    0.041358
H      -0.083805    1.999796   -1.065660
H      -0.343722    2.131674    0.679490
H      -0.899607   -0.154499   -0.124160
H       0.383396   -0.969691   -1.933121
H       1.748266    0.082334   -1.512363
H       1.997413   -2.299382    1.412112
H       3.242711    0.332473    0.408975
H       3.518703   -0.418141    1.984377
H       4.049689   -1.242568    0.502872
H      -0.070028   -1.264043    1.650396
