18

O      -0.903932    0.131394   -0.138564
C      -0.545720    1.262813   -0.041866
C      -1.236710    2.622044    0.167701
C       0.173140    3.201759    0.080688
C       1.116161    2.582356    1.024518
C       0.795576    2.074458    2.390420
C       1.852571    1.311209    3.153230
C       1.485381    2.706768    3.578869
N       0.782798    1.818756   -0.234954
H      -1.861856    2.877019   -0.691955
H      -1.811477    2.771459    1.084562
H       0.443623    4.051025   -0.535935
H       2.137434    2.951171    0.942174
H      -0.227690    1.752535    2.550193
H       1.530499    0.478399    3.767281
H       2.811069    1.161823    2.667942
H       2.197273    3.502738    3.386197
H       0.907672    2.839862    4.486347
