17

C      -0.147397    1.538015    0.024401
C       0.073981    0.015873   -0.028414
C       0.770304   -0.510152    1.201129
N       2.082094   -0.760731    1.135990
C       2.709667   -1.211804    2.225654
C       2.073159   -1.442656    3.440328
C       0.707773   -1.186671    3.529069
C       0.073091   -0.716051    2.394877
F      -1.240314   -0.449391    2.432694
H       0.805896    2.065527    0.124641
H      -0.636494    1.887852   -0.889603
H      -0.780977    1.811964    0.873194
H      -0.893079   -0.485642   -0.143636
H       0.693727   -0.243199   -0.890550
H       3.774874   -1.399943    2.118870
H       2.627555   -1.813003    4.295075
H       0.142169   -1.342633    4.440538
