17

C      -0.141156    1.678362    0.112068
C       0.045962    0.192640    0.127960
C      -1.133627   -0.843404   -0.043773
N      -0.548101   -2.107074   -0.512717
C      -0.490345   -1.755533    0.924078
C       0.688928   -0.740434    1.133120
N       1.327011   -0.418591   -0.107395
C       1.789699   -1.285225   -1.100541
O       2.555452   -2.190906   -0.895178
H       0.753808    2.179241    0.489339
H      -0.332081    2.039827   -0.905145
H      -0.993980    1.968902    0.734880
H      -2.174438   -0.591181   -0.199037
H      -1.291300   -2.790314   -0.647768
H      -0.919761   -2.395635    1.681858
H       1.167055   -0.533650    2.083108
H       1.478421   -0.950504   -2.107632
