20

C       0.472877    1.648624    0.008819
C       0.033585    0.178281    0.030185
C       0.134028   -0.427978   -1.384081
N      -0.224151   -1.829661   -1.539687
C       0.562161   -2.790570   -0.778960
C       0.195718   -2.927209    0.704034
O      -0.206252   -3.954956    1.179955
O       0.274323   -1.828260    1.495650
C       0.869330   -0.601269    1.051211
H       1.531565    1.742027   -0.261310
H      -0.104461    2.217985   -0.726090
H       0.334212    2.122937    0.985132
H      -1.011499    0.124316    0.364949
H      -0.493227    0.153564   -2.069521
H       1.168878   -0.310357   -1.738626
H      -1.215121   -1.976532   -1.382481
H       0.428905   -3.790582   -1.198744
H       1.622491   -2.528929   -0.883606
H       1.881573   -0.786265    0.666864
H       0.971177   -0.018715    1.970254
