17

C       0.095310    1.338978   -0.223393
O      -0.004341   -0.022089    0.170502
C      -1.276420   -0.505988    0.138884
C      -2.213580   -0.861417   -0.998592
C      -1.737073   -1.924170    0.028129
C      -2.882168   -1.744663    1.063369
O      -4.114274   -1.561929    0.333084
C      -3.478557   -0.392266   -0.233581
C      -2.549392   -0.215657    1.013880
H       1.152836    1.605859   -0.176897
H      -0.275268    1.483651   -1.246824
H      -0.470097    1.995029    0.452720
H      -2.034802   -0.976088   -2.058629
H      -1.192092   -2.807347   -0.274074
H      -2.967521   -2.383950    1.940099
H      -4.170260    0.332068   -0.660171
H      -2.698020    0.491935    1.825006
