19

C       0.005645    1.404984    0.226669
N      -0.042033    0.060771   -0.326167
C      -1.221230   -0.677177   -0.146493
C      -1.328416   -2.047077   -0.073667
N      -2.684441   -2.370963    0.005807
C      -3.223299   -3.701218    0.172077
C      -3.398128   -1.215019    0.009841
O      -4.752499   -1.298979    0.112437
C      -2.547121   -0.136102   -0.084460
H       1.006462    1.817283    0.071947
H      -0.698408    2.053644   -0.304980
H      -0.233664    1.458605    1.301726
H       0.773399   -0.478193   -0.069291
H      -0.580598   -2.822211   -0.097627
H      -3.072455   -4.077956    1.191455
H      -4.293299   -3.681243   -0.036534
H      -2.740593   -4.389708   -0.528150
H      -5.113356   -0.414399    0.005422
H      -2.837778    0.901548   -0.119978
