16

N       0.087674    1.355462    0.119332
C      -0.026429   -0.009132    0.036732
C      -1.148025   -0.771057   -0.032083
C      -0.788979   -2.180007   -0.012744
N      -1.502503   -3.244418    0.009525
O      -2.876765   -2.927551   -0.011328
C       0.706990   -2.270097    0.004482
N       1.353714   -1.655230   -1.189426
C       1.198778   -0.873518    0.069455
H       0.936198    1.758891   -0.247934
H      -0.737032    1.892275   -0.105026
H      -2.161825   -0.413713   -0.135243
H      -3.282359   -3.799887    0.012704
H       1.197446   -3.096722    0.502754
H       2.311436   -2.005169   -1.228841
H       2.075757   -0.571180    0.632240
