20

C      -0.226931    1.524926    0.086807
C      -0.076786    0.001824    0.014179
C       0.781226   -0.555216    1.145013
C       0.215981   -0.573692    2.594679
N       0.559807   -2.025634    2.769052
C      -0.615825   -2.922666    2.547706
C      -0.295127   -2.970796    1.039318
O      -0.783967   -3.485523    0.078415
C       0.942703   -2.092822    1.298823
H       0.747190    2.022532    0.024791
H      -0.846412    1.900005   -0.733055
H      -0.697438    1.835084    1.026468
H      -1.067313   -0.468801    0.034427
H       0.370557   -0.281107   -0.946951
H       1.769104   -0.084321    1.118138
H       0.728517    0.064902    3.318562
H      -0.861124   -0.370834    2.657978
H      -0.496556   -3.893605    3.042395
H      -1.591277   -2.507777    2.825617
H       1.902872   -2.539279    1.023411
