25

C       0.496700    1.817382    0.803610
O       0.620111    0.555631    0.187713
C       0.758391   -0.508009    1.095415
C      -0.529848   -1.164754    1.699462
C      -1.834163   -0.826919    0.979926
C       0.113645   -2.559316    1.381754
C      -0.749689   -3.693307    0.843321
C       1.161680   -1.860386    0.448359
C       0.936848   -1.961261   -1.059325
H       1.374666    2.049140    1.427324
H       0.422204    2.563053    0.007933
H      -0.399880    1.887918    1.436829
H       1.462184   -0.224263    1.893075
H      -0.663209   -0.981418    2.771001
H      -1.746526   -0.899779   -0.106335
H      -2.638486   -1.497186    1.300838
H      -2.149261    0.196271    1.208574
H       0.629078   -2.918466    2.279356
H      -1.296856   -3.409264   -0.059899
H      -0.135746   -4.566606    0.596131
H      -1.486051   -4.011789    1.589672
H       2.196796   -2.148817    0.659572
H      -0.075605   -1.680850   -1.358842
H       1.624179   -1.295257   -1.588504
H       1.119770   -2.983758   -1.405996
