14

N       0.073471    1.112090    0.249933
C      -0.044328   -0.129203    0.268452
O       0.850496   -1.125751    0.692751
C      -0.032715   -2.144812    0.179562
C      -1.329375   -2.106384    0.912008
O      -1.452867   -1.688091    2.242189
C      -0.582833   -2.210106    3.150737
O      -0.641331   -1.934325    4.306973
C      -1.081441   -1.100755   -0.198295
H       0.965725    1.417122    0.641017
H       0.412233   -2.971958   -0.356925
H      -2.041795   -2.881292    0.637733
H       0.149288   -2.896978    2.693127
H      -1.734984   -0.988931   -1.050486
