17

C      -0.351966    1.049922   -0.259176
C       1.078855    1.113714    0.239178
C       0.425911   -0.208712    0.015771
O       0.138262   -0.945283    1.172838
C      -0.882773   -1.837482    1.059779
C      -1.243804   -2.734254    2.046641
N      -2.295803   -3.428065    1.536554
N      -2.639384   -3.051701    0.298217
C      -1.781341   -2.075959   -0.005784
H      -1.133274    1.304217    0.447589
H      -0.562401    1.315188   -1.289459
H       1.861630    1.423791   -0.443382
H       1.229623    1.407674    1.271474
H       0.743133   -0.822936   -0.825150
H      -0.841616   -2.915455    3.029073
H      -2.814245   -4.164454    1.983182
H      -1.839268   -1.582728   -0.962720
