21

C       0.748918    1.438698   -0.156853
C       0.023162    0.108331    0.028339
C       0.536646   -1.064839   -0.862419
C       1.185570   -1.745239    0.378415
C       2.720099   -1.676139    0.451654
C       3.362545   -2.552563   -0.520323
C       3.865899   -3.280882   -1.333606
C       0.430793   -0.721159    1.290301
O       1.113707   -0.094765    2.350652
H       1.840128    1.325347   -0.157308
H       0.481510    1.888770   -1.118326
H       0.483779    2.150497    0.632100
H      -1.054438    0.285986   -0.037534
H      -0.264001   -1.656635   -1.311145
H       1.234500   -0.782981   -1.656272
H       0.885528   -2.784223    0.537593
H       3.068901   -0.648383    0.282534
H       3.042522   -1.941783    1.465913
H       4.323415   -3.923041   -2.044493
H      -0.440883   -1.191003    1.753853
H       1.801227    0.469460    1.983327
