16

C       0.000922   -1.190783   -0.039857
C       0.012087    0.011649   -0.008321
C       0.021728    1.448324    0.025661
C      -0.314836    2.292012    1.310706
C       0.357397    3.395746    0.462151
C       1.334176    2.313148   -0.051711
O      -0.552046    3.572813   -0.635851
C      -0.840424    2.210189   -1.006016
H      -0.006669   -2.252254   -0.065237
H      -1.367312    2.425049    1.569723
H       0.271788    1.976491    2.173913
H       0.664646    4.364913    0.849066
H       2.076026    1.999618    0.683248
H       1.784895    2.465447   -1.034642
H      -0.532584    2.018027   -2.039487
H      -1.910348    2.000376   -0.901163
