19

O       0.429457    0.711737   -0.979862
C      -0.008403   -0.328580   -0.158400
C       0.293897   -0.244849    1.372166
C      -1.182425   -0.563030    1.668743
C      -1.691471   -1.808232    2.414920
C      -2.559107   -0.809320    3.203216
O      -1.891709    0.316147    2.574710
C      -1.536349   -0.322416    0.169755
O      -2.067726    0.973642   -0.012661
H      -0.229488    1.413191   -0.866470
H       0.322581   -1.275372   -0.595727
H       1.043362   -0.924324    1.785361
H       0.535498    0.778900    1.671023
H      -2.218773   -2.549186    1.811330
H      -0.928326   -2.305396    3.016565
H      -3.628698   -0.830045    2.965223
H      -2.431153   -0.791228    4.289576
H      -2.166636   -1.069399   -0.328939
H      -2.357658    1.264861    0.867202
