17

C      -0.131191    1.531772   -0.235901
C       0.007944    0.038532   -0.023864
C       0.878194   -0.737939   -0.943025
N       1.279309   -0.511012    0.457763
C      -1.225475   -0.654091    0.603947
N      -1.096106   -2.078552    0.884642
C      -1.578145    0.043755    1.859011
N      -1.834132    0.617981    2.828305
H       0.758941    1.939532   -0.724486
H      -0.994247    1.759744   -0.871783
H      -0.273012    2.053319    0.715563
H       0.656850   -1.772770   -1.186763
H       1.385840   -0.188243   -1.731143
H       1.986456    0.215867    0.523923
H      -2.074023   -0.516814   -0.078503
H      -1.150140   -2.607436    0.021446
H      -0.178573   -2.244163    1.292416
