20

C      -0.242008    1.433853    0.170242
C      -0.064649   -0.066097    0.026627
O      -1.356371   -0.672237    0.174817
C      -1.413128   -2.022280    0.078149
N      -0.372883   -2.709105   -0.133038
C      -0.380784   -4.156627   -0.245460
C      -2.848847   -2.505356    0.257364
C      -3.916873   -1.456780    0.475289
O      -3.096302   -3.689602    0.221587
H       0.725320    1.933530    0.062944
H      -0.917329    1.823865   -0.596731
H      -0.653083    1.687719    1.151558
H       0.348447   -0.341697   -0.949735
H       0.610852   -0.476721    0.784897
H       0.641159   -4.488660   -0.448999
H      -0.731361   -4.639884    0.672914
H      -1.034135   -4.508390   -1.051001
H      -3.935743   -0.754526   -0.363752
H      -4.884096   -1.948666    0.582319
H      -3.689049   -0.863351    1.365972
