18

C       0.016341    1.404950    0.155828
O       0.020558    0.002918   -0.009671
C      -1.204598   -0.595909   -0.033953
C      -1.355577   -1.966908   -0.091784
C      -0.360016   -3.067945   -0.153022
O      -0.865413   -4.163850    0.616765
N      -2.709974   -2.213607   -0.141459
C      -3.407305   -1.042917   -0.082616
C      -2.500282   -0.003865   -0.030791
H       1.061537    1.719017    0.189850
H      -0.482423    1.909951   -0.682964
H      -0.480460    1.701150    1.089858
H      -0.185601   -3.397133   -1.192170
H       0.599350   -2.697120    0.234302
H      -0.309545   -4.928554    0.438511
H      -3.090154   -3.140449   -0.057072
H      -4.485075   -1.032075   -0.071632
H      -2.742670    1.045665    0.001875
