13

N       0.056313    1.289417    0.151608
C      -0.045608   -0.064601    0.051148
N      -1.137580   -0.770734    0.017164
N      -0.627101   -2.062490    0.014206
C      -1.029708   -3.381383   -0.028438
C       0.162264   -4.076678   -0.037815
N       1.276038   -3.241008   -0.007365
C       0.718809   -2.068346    0.022897
O       1.132086   -0.761718    0.052298
H       0.886806    1.688782   -0.260147
H      -0.796767    1.782350   -0.066591
H      -2.061926   -3.681332   -0.043367
H       0.287652   -5.147975   -0.062222
