17

O      -0.348703    0.334213   -0.571324
C       0.083503    1.084881    0.265831
C       1.339892    1.891550    0.065957
C       2.649194    1.182369   -0.408620
C       3.007979    2.576278   -0.990319
C       1.486669    2.802331   -1.194164
O       3.454187    3.463160    0.040235
C       2.914235    3.129122    1.298376
O       1.569620    2.684240    1.227324
H      -0.414839    1.238497    1.247144
H       3.299908    0.713813    0.330895
H       2.408844    0.470894   -1.199346
H       3.706620    2.673063   -1.821534
H       1.094152    2.315211   -2.088851
H       1.120566    3.824777   -1.093913
H       3.529163    2.351570    1.777042
H       2.927209    4.031419    1.914310
