21

C      -0.372263    1.440265    0.148792
C       0.326338    0.093691   -0.068046
C       0.909076   -0.483155    1.205191
C       0.016043   -1.245176    2.181669
C       1.041148   -1.962784    1.371266
O       0.695933   -2.889765    0.336102
C       1.962247   -3.571637    0.493308
C       2.284906   -2.744977    1.764330
O       3.460343   -1.973879    1.782040
H       0.323015    2.187651    0.546928
H      -0.780169    1.830621   -0.789096
H      -1.197998    1.345465    0.861889
H      -0.373898   -0.630209   -0.499536
H       1.130303    0.210294   -0.806087
H       1.712063    0.096771    1.654509
H       0.175474   -1.133751    3.249838
H      -1.019345   -1.395890    1.890261
H       1.829651   -4.652611    0.608282
H       2.652444   -3.358961   -0.332372
H       2.165236   -3.318787    2.692320
H       4.163796   -2.495460    2.179674
