21

C      -0.298372    1.466544    0.012911
C       0.089195    0.003775    0.001484
O       1.223472   -0.405224   -0.011639
O      -1.017533   -0.764144    0.007904
C      -0.926724   -2.225156   -0.001058
C      -0.256916   -2.722470   -1.283211
C      -0.232191   -2.736503    1.262281
C      -2.416361   -2.607996    0.011293
O      -2.511759   -4.021712    0.004339
H       0.602433    2.079055    0.008675
H      -0.913024    1.699191   -0.861315
H      -0.898304    1.689473    0.899782
H       0.806742   -2.486893   -1.287712
H      -0.391955   -3.804178   -1.355574
H      -0.726099   -2.261304   -2.158363
H      -0.684245   -2.285074    2.151413
H      -0.365901   -3.818959    1.325313
H       0.831379   -2.500865    1.248726
H      -2.882681   -2.172956    0.907612
H      -2.899970   -2.163059   -0.870891
H      -3.442149   -4.261745    0.011814
