15

O      -0.062852    1.373377    0.009803
C       0.053428    0.002655    0.002065
C       0.919207   -0.977011   -0.776334
C       0.914747   -0.985921    0.773777
C      -0.263701   -2.017956    0.745229
O      -0.625633   -3.025050    1.593488
C      -1.135215   -0.992134   -0.007160
C      -0.259343   -2.009220   -0.766330
O      -0.616507   -3.006442   -1.628161
H       0.819838    1.759636    0.022321
H       1.774813   -0.837873   -1.426115
H       1.766567   -0.854192    1.430069
H      -1.081996   -2.641050    2.351400
H      -2.209530   -0.868335   -0.009544
H      -1.068359   -2.613638   -2.384262
