15

O      -0.074945    1.402661    0.071329
C      -0.013733    0.030527    0.028111
C      -0.309783   -0.783523   -1.174649
C      -1.229374   -0.917690    0.053834
C      -0.546113   -1.756517    1.081571
O      -0.861455   -2.686512    1.760281
C       0.729861   -0.822906    1.090662
C       2.032784   -1.369087    0.787498
C       3.102556   -1.839317    0.501701
H       0.643724    1.759481   -0.462867
H      -0.788322   -0.246131   -1.987160
H       0.335192   -1.601858   -1.478611
H      -2.288847   -0.710607   -0.025291
H       0.725013   -0.293717    2.051096
H       4.049717   -2.257095    0.265047
