15

C       0.015418    1.387012    0.082998
N      -0.021986   -0.055551   -0.021933
C      -0.088863   -0.781210   -1.186971
C      -0.002068   -2.092211   -0.775452
N       0.002068   -3.436997   -1.082988
C       0.124208   -4.093514    0.132468
N       0.190810   -3.311753    1.178397
C       0.113714   -2.043742    0.633213
N       0.106133   -0.794884    1.102782
H       1.041683    1.748936    0.207390
H      -0.412370    1.824269   -0.821427
H      -0.573500    1.693730    0.948909
H      -0.188198   -0.295165   -2.142803
H      -0.053377   -3.873428   -1.985820
H       0.158962   -5.173774    0.166643
