19

C      -0.132646    1.502674    0.000390
C       0.049400    0.004829   -0.002892
O      -0.743576   -0.718501    0.952512
C       0.679430   -0.702625    1.126624
C       1.392192   -2.028167    0.928060
O       1.549512   -2.403240   -0.429834
C       0.386364   -2.169780   -1.202821
C       0.148737   -0.663125   -1.363432
O      -1.054372   -0.390311   -2.068340
H       0.716596    1.997240   -0.483427
H      -1.038399    1.768626   -0.550469
H      -0.219059    1.874656    1.024053
H       1.013544   -0.115999    1.983722
H       2.402955   -1.970012    1.344466
H       0.839410   -2.804646    1.481949
H       0.564733   -2.631959   -2.179380
H      -0.505659   -2.625816   -0.751794
H       1.017865   -0.226383   -1.881953
H      -0.945662   -0.690488   -2.976113
