15

N       0.106142    0.837030    0.842693
C       0.030227   -0.188914    0.114729
N       0.912137   -0.968333   -0.646230
C      -0.060757   -2.054183   -0.869804
C      -1.143979   -1.131277   -0.240090
O      -1.759917   -1.808732    0.833130
C      -0.856001   -2.776934    1.341871
C       0.064466   -3.168562    0.177471
O       0.771220   -4.138947    0.118541
H       1.063869    1.184552    0.924209
H       1.904027   -1.092271   -0.487733
H      -0.137924   -2.414788   -1.896250
H      -1.917216   -0.708761   -0.880351
H      -0.249726   -2.378028    2.170504
H      -1.419530   -3.637040    1.711545
