15

O      -0.001770    0.008372    0.008871
C      -0.019426    1.208123    0.009605
C      -1.186622    2.160239    0.032857
C      -0.686443    3.353251    0.797912
C       0.754953    3.075461    1.233687
C       1.143372    2.224676    0.000596
C       0.641170    3.131964   -1.135397
N      -0.756204    3.402211   -0.668706
H      -2.220560    1.851057   -0.035380
H      -1.356701    4.001197    1.349385
H       1.348260    3.990334    1.326558
H       0.813948    2.518692    2.173096
H       2.144285    1.807402   -0.052634
H       1.184031    4.077455   -1.220783
H       0.614927    2.642911   -2.113205
