14

O       0.362700    1.015930    0.876789
C      -0.050118    0.350610   -0.290436
C      -1.428718   -0.234654   -0.186787
N      -2.034566   -0.284408    0.969368
O      -3.257862   -0.914025    0.741658
C      -3.347833   -1.222353   -0.553395
C      -2.225778   -0.829468   -1.225262
C      -1.908023   -0.959983   -2.593625
C      -1.607590   -1.056776   -3.755222
H      -0.028752    0.560311    1.631120
H      -0.025904    1.072831   -1.115240
H       0.642737   -0.461807   -0.570776
H      -4.255321   -1.712240   -0.869793
H      -1.349260   -1.144664   -4.781627
