23

C       0.041455    1.617719    0.122947
C       0.072055    0.089758    0.017720
C      -1.325815   -0.532907   -0.122529
C      -2.040722   -0.274219   -1.433853
C      -2.725473   -1.337429   -1.847017
C      -2.594434   -2.502444   -0.890140
C      -2.472129   -3.874407   -1.560610
C      -1.364304   -2.082598   -0.024134
O      -0.140325   -2.580674   -0.550944
H       1.051202    2.023090    0.241986
H      -0.392696    2.080304   -0.769888
H      -0.551773    1.946025    0.984393
H       0.690682   -0.220182   -0.829386
H       0.553383   -0.325454    0.911226
H      -1.947144   -0.135596    0.697197
H      -2.012337    0.685966   -1.936783
H      -3.337713   -1.386499   -2.741698
H      -3.477005   -2.525251   -0.231068
H      -1.611327   -3.904297   -2.234227
H      -2.364620   -4.677743   -0.821422
H      -3.367539   -4.096461   -2.149685
H      -1.480014   -2.412107    1.018701
H      -0.138695   -3.536040   -0.443010
