13

O      -0.064385    1.342745    0.009861
C       1.257057    1.707881   -0.000622
N       2.121836    0.756440   -0.014119
C       1.337350   -0.401404   -0.013015
C      -0.012536   -0.021356    0.001869
C      -1.029351   -0.954098    0.006375
C      -0.589302   -2.277424   -0.005076
C       0.782905   -2.571232   -0.019699
N       1.760489   -1.659959   -0.023954
H       1.442147    2.771611    0.003464
H      -2.078486   -0.684672    0.017803
H      -1.306128   -3.090410   -0.002758
H       1.103057   -3.609775   -0.028452
