21

O      -0.036084    1.286196   -0.509080
C       0.018108   -0.124444   -0.330712
C      -1.370824   -0.575545    0.085719
C      -2.469406   -0.454256   -1.011468
C      -2.647252   -2.004039   -0.998889
C      -1.953538   -2.759826   -2.098866
C      -0.830596   -3.350967   -1.689000
C      -0.550026   -3.123805   -0.219324
C      -1.645590   -2.115934    0.201051
H       0.813776    1.577038   -0.852004
H       0.317964   -0.627032   -1.262981
H       0.753263   -0.395322    0.445100
H      -1.629131   -0.036543    1.001957
H      -3.355882    0.095135   -0.686036
H      -2.129844   -0.025338   -1.957832
H      -3.674585   -2.348187   -0.839388
H      -2.343238   -2.800101   -3.111275
H      -0.177874   -3.949049   -2.316835
H      -0.625019   -4.062760    0.346330
H       0.466445   -2.752211   -0.041354
H      -2.093923   -2.377920    1.160736
