19

C      -0.182355    1.573739   -0.001545
C       0.079867    0.068192   -0.019169
C       0.831940   -0.492408   -1.259588
O       1.416966    0.487249   -2.113600
C       1.882335   -1.405416   -0.666513
C       1.956896   -1.351574    0.670769
C       2.888081   -2.051889    1.604319
C       0.916658   -0.409872    1.176696
O       0.759146   -0.087513    2.332489
H       0.742837    2.146889   -0.112356
H      -0.852962    1.868256   -0.812379
H      -0.633417    1.850268    0.954820
H      -0.883664   -0.451691    0.067624
H       0.150958   -1.041503   -1.918296
H       2.135819    0.908518   -1.629371
H       2.530096   -1.993549   -1.309693
H       3.605971   -2.679246    1.070768
H       3.435663   -1.325125    2.213860
H       2.327338   -2.677380    2.307648
