15

C       0.026986    1.493569    0.134350
C       0.049849    0.008259    0.017429
C      -0.003767   -0.750039   -1.134890
N       0.049544   -2.081638   -0.691778
C       0.128791   -2.030395    0.653707
O       0.194106   -3.163120    1.366409
N       0.132587   -0.809380    1.127499
C      -0.091770   -0.402863   -2.491629
C      -0.167349   -0.112504   -3.660302
H       0.932082    1.860862    0.630379
H      -0.041476    1.957084   -0.852382
H      -0.826444    1.825448    0.735752
H       0.031329   -2.907080   -1.265980
H       0.243848   -2.896605    2.293520
H      -0.233916    0.152493   -4.686023
