16

C      -0.095955    1.478309    0.001879
C       0.047525   -0.021379   -0.008299
O       1.118909   -0.598194    0.009224
N      -1.149064   -0.740078   -0.036170
N      -2.370889   -0.088867    0.008845
C      -3.249110   -1.067786    0.039464
C      -2.660894   -2.356545    0.014433
C      -1.303401   -2.122304   -0.038146
N      -0.237715   -2.968739   -0.146167
H       0.902701    1.913860    0.008645
H      -0.658631    1.814075   -0.872394
H      -0.663598    1.800714    0.877935
H      -4.303407   -0.829415    0.077369
H      -3.152503   -3.315367    0.020154
H      -0.386814   -3.912091    0.171939
H       0.662922   -2.552091    0.047489
