16

O       0.203126   -0.218033   -0.141838
C       0.102512    0.977229   -0.053834
C       1.287767    1.919949    0.010463
C       1.280108    2.981204   -1.111301
C       2.078680    4.155340   -0.502804
O       2.227877    3.879001    0.899545
C       1.361868    2.828700    1.265294
C       0.033092    3.349974    1.668920
N      -1.001159    3.768926    1.969496
H      -0.889936    1.477937   -0.030029
H       2.200429    1.320659   -0.017478
H       1.723739    2.601009   -2.032823
H       0.252488    3.285899   -1.334495
H       3.085638    4.241317   -0.921217
H       1.561945    5.111508   -0.638951
H       1.800314    2.311621    2.123371
