19

C      -0.706596    1.141396   -0.245601
C       0.240287   -0.007946    0.057734
C       1.571790   -0.109605   -0.738101
C       2.319825   -0.473647    0.579736
C       1.070240    0.039621    1.371132
C       2.524631   -1.968928    0.746223
N       3.706603   -2.334304    1.324528
O       1.692227   -2.791531    0.405770
H      -0.188285    2.106367   -0.189514
H      -1.132248    1.050599   -1.251439
H      -1.540535    1.169817    0.465074
H      -0.283483   -0.964860   -0.002743
H       1.615747   -0.851431   -1.537255
H       1.898098    0.861082   -1.124061
H       3.248089    0.072929    0.767473
H       1.223712    1.063903    1.725041
H       0.727819   -0.575857    2.206189
H       4.389725   -1.664240    1.628219
H       3.871935   -3.312402    1.497514
