15

C       0.051674    1.479399   -0.203101
C       0.117146   -0.015976    0.145766
O       0.706128   -0.242371    1.408489
C      -1.247672   -0.644179    0.052322
N      -1.907756   -1.049281    1.098904
O      -3.109956   -1.522456    0.651398
N      -3.203936   -1.412531   -0.717250
C      -2.076542   -0.877028   -1.088872
O      -1.745142   -0.590195   -2.353584
H       1.055541    1.906098   -0.141609
H      -0.336388    1.629944   -1.215295
H      -0.597751    2.007707    0.502207
H       0.767433   -0.513663   -0.585018
H       0.017187   -0.169430    2.079509
H      -2.477101   -0.849648   -2.929007
