18

N      -0.540333    1.141328    0.222751
C      -0.564274   -0.084961   -0.072217
O      -0.740716   -1.002960    0.901978
C      -0.646183   -2.362849    0.522816
C      -1.314022   -3.292518    1.569072
C      -2.341220   -3.762499    0.508299
C      -3.536573   -2.806644    0.305876
O      -2.816854   -2.034159   -0.691579
C      -1.662186   -2.865795   -0.563919
H      -0.414971    1.696602   -0.621095
H      -0.454485   -0.517931   -1.074226
H       0.394179   -2.623987    0.292089
H      -0.650673   -4.084453    1.922581
H      -1.726337   -2.763633    2.431203
H      -2.524058   -4.829173    0.393341
H      -4.433158   -3.263233   -0.128606
H      -3.820390   -2.199850    1.173612
H      -1.262466   -3.194221   -1.527084
