15

C      -0.015406    1.521437    0.050324
C      -0.006003    0.025147    0.023772
C      -0.032583   -0.796100   -1.091656
N      -0.012700   -2.131977   -0.734701
C       0.027421   -2.190135    0.636918
C       0.031880   -0.893179    1.106763
O       0.070698   -0.885304    2.451122
N       0.092443   -2.228007    2.881688
C       0.066646   -2.985295    1.802285
H       0.880229    1.922401    0.537882
H      -0.053945    1.928138   -0.963930
H      -0.880056    1.909947    0.599855
H      -0.064946   -0.513494   -2.133201
H      -0.026130   -2.903242   -1.376455
H       0.077844   -4.057968    1.929791
