16

C      -0.466262    1.447314    0.270876
C      -0.033034    0.006816    0.257268
O       1.239544   -0.296587   -0.307212
C       1.075918   -0.547534    1.077255
C       1.863221    0.274340    2.038803
N       2.452209    1.350661    1.753454
O       1.864135   -0.367902    3.278939
C       1.729131    0.380052    4.414153
O       1.857991   -0.092650    5.497654
H       0.353758    2.100299    0.572424
H      -0.795032    1.740236   -0.731483
H      -1.313353    1.582164    0.952091
H      -0.810378   -0.712633   -0.009178
H       1.024131   -1.596911    1.364923
H       2.980708    1.739312    2.533570
H       1.467023    1.429527    4.198437
