19

C      -0.099910    1.604825   -0.083949
C       0.012104    0.075443   -0.010695
C       0.746811   -0.490896   -1.226588
O       2.135790   -0.119771   -1.225465
C       2.725819   -0.083880   -0.006236
N       2.213110   -0.233533    1.138809
C       0.762624   -0.447068    1.237834
C       0.269589    0.135042    2.563441
H       0.881511    2.085405   -0.035923
H      -0.574316    1.908829   -1.022939
H      -0.705523    1.998798    0.735832
H      -0.999903   -0.349262   -0.014090
H       0.685060   -1.586511   -1.242554
H       0.342536   -0.108936   -2.167720
H       3.790437    0.115006   -0.120555
H       0.601919   -1.534399    1.282416
H       0.472146    1.207703    2.625718
H      -0.807033   -0.024418    2.687453
H       0.792591   -0.347377    3.393130
