24

C      -0.170176    1.578233    0.457528
C       0.131187    0.174585   -0.065046
N       0.807639   -0.604444    0.965876
C      -0.007203   -1.434151    1.848126
C       0.933153   -2.064413    0.868865
C       0.361339   -2.815316   -0.321544
C       2.276396   -2.576662    1.369588
C       2.226528   -3.967648    1.994971
O       3.526143   -4.256943    2.490592
H       0.750051    2.073433    0.779080
H      -0.644869    2.187010   -0.318482
H      -0.847846    1.535748    1.316634
H      -0.806419   -0.288425   -0.415263
H       0.799740    0.237052   -0.932392
H       0.233484   -1.391480    2.908297
H      -1.073636   -1.508923    1.632173
H      -0.607088   -2.423510   -0.638004
H       1.045407   -2.765482   -1.177060
H       0.219070   -3.873184   -0.078759
H       3.000748   -2.587632    0.544998
H       2.659782   -1.875256    2.116224
H       1.477523   -3.982658    2.803726
H       1.916177   -4.717676    1.250667
H       3.511233   -5.138026    2.875212
