17

O       0.032393    1.476498    0.207871
C       0.115029    0.090646   -0.018750
C      -1.279687   -0.551134   -0.105890
N      -2.054694   -0.196850    1.105825
C      -3.450565    0.086639    0.733178
C      -3.349092    0.350867   -0.757409
C      -2.152999   -0.006236   -1.206473
C      -4.371056   -1.035742    1.021290
N      -5.070254   -1.922459    1.269737
H      -0.631538    1.573819    0.904953
H       0.652921   -0.061656   -0.961324
H       0.689087   -0.420920    0.772630
H      -1.150838   -1.640329   -0.228984
H      -1.982762   -0.889211    1.840531
H      -3.829692    0.958821    1.283124
H      -4.177796    0.751345   -1.324939
H      -1.810941    0.066698   -2.231091
