19

C      -0.003214    1.580647    0.050429
C       0.059367    0.051709    0.063344
C       0.654873   -0.510466   -1.233429
N       0.718922   -1.961322   -1.256094
C       1.694534   -2.779341   -0.694226
N       1.535484   -4.039720   -0.828128
C       0.286022   -4.193866   -1.579383
C      -0.239073   -2.781068   -1.852556
O      -1.227212   -2.404452   -2.436855
H       0.994100    2.020143   -0.063297
H      -0.622835    1.944650   -0.776075
H      -0.430857    1.964072    0.980958
H       0.657771   -0.292649    0.916153
H      -0.944597   -0.367114    0.194705
H       0.036377   -0.218596   -2.087705
H       1.662597   -0.110939   -1.397768
H       2.536518   -2.322722   -0.182278
H       0.456835   -4.731038   -2.518596
H      -0.446489   -4.774614   -1.008230
