19

C       0.454497    1.459274   -0.099283
C       0.153125   -0.023876   -0.009198
O       0.618804   -0.639196   -1.229479
C       0.435883   -1.967600   -1.321857
O      -0.074344   -2.641707   -0.462086
C       0.924164   -2.496124   -2.660063
C       1.434327   -3.912879   -2.551044
C       2.391543   -4.458113   -3.518565
O       2.814794   -4.062328   -2.212662
H       1.528499    1.633779   -0.208654
H      -0.056561    1.911365   -0.953996
H       0.114493    1.962119    0.810889
H       0.659742   -0.496675    0.837599
H      -0.918130   -0.220811    0.098973
H       0.067026   -2.465412   -3.346489
H       1.693552   -1.836765   -3.067587
H       0.769450   -4.596750   -2.026224
H       2.411812   -5.528983   -3.715552
H       2.748508   -3.830984   -4.335167
