19

C      -0.211414   -1.236397   -0.055886
C      -0.151686   -0.035510   -0.010164
C      -0.062167    1.407272    0.047598
C      -0.085832    2.006513    1.522296
C       1.414413    2.106668    1.395856
C       2.572646    1.760250    1.944457
C       3.592175    1.497057    0.837607
C       2.700869    1.240327   -0.425035
C       1.409627    2.009693   -0.102704
H      -0.278039   -2.295282   -0.097725
H      -0.796083    1.858671   -0.625940
H      -0.600845    2.972578    1.531708
H      -0.492725    1.371606    2.311102
H       2.780688    1.592272    2.994809
H       4.268260    2.350649    0.686289
H       4.230756    0.637741    1.069682
H       3.181869    1.553993   -1.355661
H       2.483313    0.169978   -0.503042
H       1.338364    2.973018   -0.621276
