20

C      -0.058171    1.581597    0.112025
N       0.006711    0.140330    0.097237
C      -1.219378   -0.646947    0.329103
C      -0.407249   -1.622756    1.207248
O       0.082672   -2.782787    0.550198
C       1.485542   -2.717390    0.422534
C       2.063711   -1.838327   -0.645854
C       1.988787   -1.345190    0.788077
C       0.734745   -0.569771    1.173704
H       0.947115    1.999954   -0.006192
H      -0.666753    1.935423   -0.727131
H      -0.493622    1.993678    1.043384
H      -1.982006   -0.113345    0.918862
H      -1.682735   -1.061192   -0.572412
H      -0.854370   -1.899346    2.166528
H       1.983926   -3.633274    0.723053
H       3.042707   -2.096060   -1.036404
H       1.380537   -1.374827   -1.348088
H       2.894874   -1.204161    1.364822
H       0.870070    0.021792    2.088219
