16

C      -0.058085    1.439472    0.050664
C       0.026006   -0.038698   -0.079270
N       0.046611   -0.722604   -1.157094
C       0.057950   -2.102707   -0.759747
C       0.083131   -2.093738    0.751218
O       0.085396   -0.729923    1.105043
C      -1.159343   -2.606406    0.040600
C      -2.401696   -1.900845    0.078077
C      -3.447374   -1.307902    0.118191
H       0.734312    1.810838    0.707200
H       0.028736    1.896280   -0.934623
H      -1.016885    1.721852    0.496739
H       0.580499   -2.803514   -1.398801
H       0.657261   -2.717326    1.424007
H      -1.235268   -3.690402    0.058049
H      -4.374265   -0.791048    0.145185
