14

C       0.069688    1.425651    0.125560
N      -0.027855    0.013864   -0.203075
C      -1.213696   -0.656183   -0.070747
N      -1.239903   -1.973204    0.062431
O      -2.583684   -2.330333    0.102439
C      -3.326333   -1.213220    0.008852
C      -2.534603   -0.111647   -0.100841
C      -4.736298   -1.350983    0.037275
N      -5.889659   -1.442607    0.059144
H       1.088298    1.760939   -0.078415
H      -0.600443    2.009117   -0.513356
H      -0.168512    1.650024    1.175323
H       0.776858   -0.550496    0.026589
H      -2.847160    0.913770   -0.192516
