18

C       0.059476    1.615297   -0.000533
C       0.084108    0.087538   -0.005947
C       0.817282   -0.560704   -1.175413
O       2.066996    0.081423   -1.525057
C       2.828285   -1.092417   -1.158075
C       1.576747   -1.761820   -0.572086
O       1.479745   -1.641906    0.844714
C       0.774045   -0.519152    1.207447
N       0.688694   -0.087129    2.388005
H       1.068605    2.008847   -0.139395
H      -0.574645    1.998595   -0.805287
H      -0.326143    1.971298    0.956840
H      -0.945864   -0.296052   -0.004580
H       0.194707   -0.733083   -2.058379
H       3.245600   -1.597660   -2.038058
H       3.623928   -0.872986   -0.439135
H       1.342576   -2.786468   -0.860637
H       1.227445   -0.669382    3.030779
