18

N       0.023653    1.244183    0.526956
C       0.002142    0.160983   -0.301227
O       0.947183   -0.127441   -1.015680
C      -1.275033   -0.660221   -0.274081
C      -1.820897   -0.952144   -1.707237
C      -1.142872   -2.358934   -1.662033
C      -0.992985   -2.187493   -0.116421
C      -1.881133   -3.498521   -2.162745
C      -2.514696   -4.439542   -2.563731
H       0.850772    1.818551    0.541564
H      -0.749743    1.489672    1.118187
H      -2.002632   -0.244757    0.427199
H      -2.909807   -1.027989   -1.714061
H      -1.492343   -0.284164   -2.504483
H      -0.156849   -2.298611   -2.128327
H      -0.028448   -2.468482    0.308372
H      -1.796080   -2.689851    0.425982
H      -3.063586   -5.273136   -2.925409
