17

O      -0.024540   -0.039082   -0.225886
C       0.047242    1.094235    0.191238
C       1.278858    1.907040    0.180764
C       1.750418    3.046554    1.135171
C       2.388773    3.702923   -0.066565
C       3.160792    2.660550    0.745349
C       2.746686    1.364499    0.005942
C       2.707570    1.690757   -1.505934
C       1.697771    2.787160   -1.097430
H      -0.854069    1.612972    0.593243
H       1.345679    3.457102    2.050572
H       2.724690    4.723789   -0.188755
H       4.085644    2.884433    1.259093
H       3.063057    0.399049    0.395602
H       3.633176    2.002386   -1.998995
H       2.224485    0.889477   -2.071177
H       0.963998    3.212887   -1.780055
