20

C      -0.034168    1.340159    0.109245
O      -0.026462   -0.064124   -0.023774
C       0.697034   -0.548795   -1.134823
C       2.202249   -0.618872   -0.870279
C       0.122969   -1.938570   -1.468878
O       0.410643   -2.822026   -0.417205
C       0.101973   -4.176827   -0.693343
C      -1.334071   -1.847783   -1.727535
N      -2.465341   -1.811247   -1.958595
H       0.965561    1.749016    0.315192
H      -0.432297    1.829246   -0.792830
H      -0.685914    1.574467    0.953638
H       0.502356    0.087431   -2.014294
H       2.734515   -0.999650   -1.748062
H       2.597029    0.375938   -0.649031
H       2.401056   -1.277150   -0.023140
H       0.593766   -2.284841   -2.405213
H       0.651866   -4.540966   -1.574335
H       0.407829   -4.751472    0.182645
H      -0.973150   -4.321267   -0.862651
