16

O      -0.023163   -0.014537   -0.010768
C      -0.000458    1.185976    0.018457
N      -0.975997    2.151916    0.085008
C      -0.073468    3.308281    0.104031
C       1.097593    2.291653   -0.030193
O       2.111221    2.307348    0.987262
C       3.134037    2.444531   -0.013611
C       3.141705    1.258186   -0.920023
C       2.134447    2.374051   -1.141278
H      -1.982431    2.085758    0.100865
H      -0.200697    3.998618   -0.736323
H      -0.057027    3.858401    1.049147
H       3.965677    3.103557    0.202449
H       3.944619    1.231071   -1.650411
H       2.808404    0.295372   -0.546723
H       2.043533    2.938176   -2.058994
