23

C       0.298606    1.479902   -0.492643
C       0.154881    0.012187   -0.159931
C       1.383832   -0.877716    0.007603
C       0.529193   -0.526161    1.183660
C       0.884570    0.199163    2.473368
C       0.009813   -0.891624    3.152274
C       0.762499   -1.868876    4.043927
C      -1.280270   -0.395842    3.789379
O      -0.268295   -1.503549    1.850284
H       1.158712    1.920358    0.023286
H       0.449019    1.630671   -1.567458
H      -0.591198    2.047539   -0.197364
H      -0.702612   -0.483641   -0.609011
H       1.325877   -1.896036   -0.362108
H       2.365315   -0.418232   -0.072101
H       1.940776    0.181824    2.751233
H       0.502583    1.218937    2.562368
H       1.045694   -1.394076    4.989941
H       0.135661   -2.737346    4.270687
H       1.670221   -2.223208    3.547777
H      -1.809680    0.281789    3.113847
H      -1.941918   -1.238538    4.014868
H      -1.072689    0.136614    4.724184
