12

N       0.019562    1.337002   -0.005405
C      -0.042781   -0.032222   -0.013169
N      -1.142990   -0.759408   -0.097068
C      -0.653696   -2.015598    0.018672
N       0.645706   -2.149890    0.159343
N       1.034420   -0.847469    0.141040
N      -1.522314   -3.191079   -0.017323
O      -2.719111   -2.981793   -0.132878
O      -0.981462   -4.282325    0.071015
H       0.825255    1.754233   -0.448005
H      -0.850223    1.763443   -0.292073
H       2.006735   -0.618461    0.271630
