19

O       0.069802    0.041246    0.296926
C       0.007567    1.214370    0.045694
C      -1.289263    2.035197   -0.109866
C      -0.847993    3.349746   -0.773654
C      -1.463737    4.701466   -0.355461
C      -0.254666    5.679060   -0.301337
C       0.923915    4.753372   -0.064748
C       0.603080    3.492346   -0.338200
C       1.226373    2.145181   -0.176625
H      -2.047460    1.456924   -0.642774
H      -1.672253    2.219009    0.903609
H      -0.896804    3.226554   -1.866556
H      -2.259361    5.043265   -1.022435
H      -1.894827    4.606731    0.647905
H      -0.140492    6.232818   -1.244481
H      -0.364536    6.434276    0.484622
H       1.889892    5.105717    0.280140
H       1.944245    2.052112    0.642850
H       1.737337    1.797692   -1.086245
