21

C      -0.364228    1.452204   -0.080661
N       0.102237    0.076735    0.021358
C       1.411708   -0.453947   -0.311716
C       2.681687    0.375410   -0.320441
N       2.530325    1.816953   -0.018663
C       2.927979    0.884990    1.054311
C       1.792946    0.408872    1.961560
C       0.877807   -0.494844    1.104887
C       0.295290   -1.721062    1.772859
H      -0.322932    1.764783   -1.127939
H      -1.414543    1.470758    0.234216
H       0.202622    2.182517    0.501271
H       1.403265   -1.323929   -0.966987
H       3.488668    0.060731   -0.974093
H       3.355005    2.313028   -0.348983
H       3.928206    0.978138    1.466625
H       2.209385   -0.187003    2.780416
H       1.251212    1.244939    2.417999
H      -0.372086   -1.441515    2.597351
H      -0.288984   -2.298218    1.052257
H       1.082114   -2.362371    2.186598
