15

N       0.020466    1.365640    0.336759
C       0.049652    0.007999    0.019084
N      -1.091195   -0.699536   -0.005870
N      -0.622572   -1.957849   -0.172138
C      -0.955122   -3.279356   -0.720897
C       0.609250   -3.497017   -0.810528
C       0.704717   -2.050139   -0.343371
C       1.224794   -0.779209   -0.217589
H       0.695732    1.912231   -0.180216
H      -0.909231    1.751281    0.230933
H      -1.514396   -3.926213   -0.039393
H      -1.453443   -3.240541   -1.694046
H       1.010868   -4.253712   -0.132684
H       0.974524   -3.688141   -1.821989
H       2.245379   -0.436718   -0.251288
