17

C      -0.571487    1.411240    0.202196
C       0.074791    0.080807   -0.057870
C      -0.048543   -0.573065   -1.214229
C       0.610837   -1.903306   -1.439551
O       0.107576   -2.954869   -0.590704
C       0.222778   -2.821056    0.752381
N       0.562287   -1.868128    1.506532
C       0.897454   -0.514563    1.077494
H       0.177514    2.160474    0.489874
H      -1.106397    1.782191   -0.675965
H      -1.280016    1.345578    1.037454
H      -0.647058   -0.159954   -2.021437
H       0.432064   -2.270457   -2.451549
H       1.698339   -1.839823   -1.295719
H      -0.053258   -3.773631    1.207334
H       1.967619   -0.468459    0.819733
H       0.790185    0.122979    1.961641
