19

C      -0.067109    1.682564   -0.112683
C      -0.047275    0.142317   -0.035279
C       0.571878   -0.346705    1.276454
C      -1.497872   -0.331311   -0.147019
O      -2.099644   -0.895433    0.730939
C       0.724148   -0.452798   -1.264509
O       0.118397   -0.093057   -2.504804
C       2.144280   -0.097365   -1.249843
C       3.298965    0.237685   -1.273841
H       0.954815    2.073610   -0.128925
H      -0.586174    2.033891   -1.010126
H      -0.580275    2.103311    0.756696
H      -0.040217   -0.027248    2.122774
H       0.620201   -1.439520    1.307567
H       1.583143    0.048188    1.399266
H      -1.980080   -0.097359   -1.118520
H       0.636746   -1.545435   -1.209780
H       0.487352    0.753083   -2.778479
H       4.325206    0.512175   -1.293827
