18

N       0.403774   -1.156732    0.890577
C       0.294285   -0.085735    0.473204
C       0.090711    1.278821   -0.036510
C      -0.973285    2.009213    0.816175
O      -1.362345    3.202406    0.178484
C      -0.652588    4.376580    0.549655
C       0.881374    4.266116    0.439378
C       1.366384    3.234087   -0.583042
O       1.352106    1.908394   -0.055796
H      -0.319945    1.207117   -1.057445
H      -1.860380    1.370708    0.888682
H      -0.586295    2.178368    1.830013
H      -1.027842    5.141118   -0.136891
H      -0.933619    4.682191    1.568651
H       1.282369    5.252798    0.179078
H       1.325332    3.994183    1.402688
H       0.783660    3.284361   -1.514010
H       2.415530    3.420742   -0.826919
