20

C       0.013018    1.590464   -0.004573
C       1.528297    2.022173   -0.076536
C       2.143884    0.710576    0.369858
C       1.413393   -0.318247   -0.487992
C       0.002166    0.006106    0.044021
C      -0.020795   -0.633675    1.432534
C       1.057197   -0.559172    2.227890
C       2.077533    0.454649    1.827902
N       3.379396    0.406026    1.091160
H      -0.473212    2.010959    0.878859
H      -0.541953    1.941088   -0.879022
H       1.811237    2.307220   -1.096001
H       1.757373    2.856913    0.588834
H       1.534268   -0.087675   -1.553337
H       1.707040   -1.354080   -0.312236
H      -0.816440   -0.391051   -0.560612
H      -0.881382   -1.238118    1.708772
H       1.111939   -1.076155    3.181731
H       2.068031    1.334354    2.472382
H       3.654832   -0.550267    0.874573
