16

C       0.062357    1.466488   -0.012272
N       0.012516    0.013876    0.011615
C      -0.044392   -0.671553    1.210549
N      -0.055672   -0.065920    2.332610
C       0.024216   -0.651777   -1.200427
C       0.077717   -0.130969   -2.459148
O       0.066549   -1.191577   -3.339243
C       0.007304   -2.277754   -2.556260
N      -0.020593   -2.037425   -1.285156
H       0.979442    1.811032   -0.504750
H      -0.800497    1.871340   -0.554365
H       0.045471    1.816746    1.018078
H      -0.076474   -1.750872    1.057940
H      -0.099839   -0.742938    3.090127
H       0.123023    0.853085   -2.885555
H      -0.011462   -3.238365   -3.046673
