20

C      -0.022860    1.538005    0.130575
N      -0.024893    0.092970    0.125218
C      -1.287511   -0.605334    0.439032
C      -0.488332   -1.634045    1.267162
O      -1.118052   -1.932943    2.491033
C       0.062178   -2.836312    0.547868
C       1.362091   -2.714541    0.273278
C       1.946401   -1.387053    0.710353
C       0.706836   -0.620461    1.196688
H       0.995295    1.909663   -0.028895
H      -0.645819    1.913637   -0.688643
H      -0.402467    1.975320    1.074117
H      -1.958817   -0.035320    1.100183
H      -1.849391   -0.958786   -0.432598
H      -0.595843   -2.613259    2.930493
H      -0.556739   -3.697657    0.318837
H       1.959722   -3.470474   -0.226347
H       2.711446   -1.517911    1.487652
H       2.423606   -0.859073   -0.123422
H       0.855317   -0.028156    2.109007
