16

C       0.160652    1.590058   -0.076515
C       0.003583    0.073921    0.081887
N       0.557124   -0.678718   -1.032977
C       1.847209   -1.101244   -0.774045
O       2.660987   -1.519496   -1.543996
O       2.066129   -0.984009    0.576676
C       0.872587   -0.561095    1.216823
C       1.160063    0.379619    2.371111
O       2.229460    0.863051    2.616868
H       1.216423    1.872221   -0.125387
H      -0.329964    1.924672   -0.995879
H      -0.302622    2.125755    0.758038
H      -1.049817   -0.179894    0.234706
H       0.350207   -0.421709   -1.985877
H       0.348630   -1.439579    1.623398
H       0.258569    0.587953    2.992906
