22

C       1.924218    2.577327   -3.139472
C       2.055869    1.841494   -1.807195
N       1.722144    0.427848   -1.979716
C       1.631534   -0.453200   -0.820277
C       1.875294    0.020765    0.597316
O       3.254437    0.269017    0.845769
C       0.405649   -0.115311   -1.612304
C      -0.742373    0.709309   -1.067799
O      -1.563622    1.223892   -2.106119
H       2.556195    2.110698   -3.899629
H       0.893474    2.553771   -3.513219
H       2.214503    3.627070   -3.033152
H       3.091290    1.881132   -1.454529
H       1.455235    2.357137   -1.042640
H       2.074737   -1.436646   -1.001193
H       1.369208    0.963698    0.811518
H       1.474061   -0.729168    1.297661
H       3.741303   -0.533891    0.631193
H       0.048827   -0.865233   -2.318567
H      -1.395553    0.058300   -0.476120
H      -0.399097    1.509820   -0.399569
H      -1.018010    1.792484   -2.658832
