17

O      -0.077346    0.378556    1.049894
C      -0.043336    1.338492    0.311812
C      -1.287097    1.880141   -0.382288
N      -1.261254    3.273894   -0.800103
C      -0.117705    3.792396   -1.010803
N       1.110176    3.188888   -0.852613
C       1.242137    2.059297    0.033046
C       2.245041    2.097554    1.177311
C       2.504722    1.223609   -0.012539
H      -1.451491    1.242977   -1.267391
H      -2.141760    1.696318    0.276244
H      -0.061585    4.813043   -1.391391
H       1.915797    3.791805   -0.925162
H       2.822496    3.009937    1.285916
H       1.937605    1.620518    2.100740
H       2.376441    0.154106    0.105829
H       3.261187    1.530852   -0.727054
