16

O      -0.054327    1.415273    0.205817
C       0.033554    0.021006   -0.059629
C      -1.364496   -0.520662   -0.045994
C      -2.058483   -1.001074    1.221629
C      -1.751145   -1.965403    0.104641
O      -2.772604   -2.239743   -0.828252
C      -3.110485   -1.077728   -1.496598
O      -4.022177   -1.003489   -2.268683
N      -2.228571   -0.094163   -1.104391
H       0.810227    1.808018    0.052547
H       0.485361   -0.168831   -1.044395
H       0.636054   -0.500375    0.700192
H      -1.447018   -1.088712    2.113121
H      -3.090547   -0.713349    1.387970
H      -1.050292   -2.782549    0.219976
H      -2.454902    0.872873   -1.266895
