20

C       0.083265    1.534578   -0.237015
C       0.008453    0.039627    0.084496
C      -1.402440   -0.536459   -0.069075
C      -1.476766   -2.040500    0.256076
C      -2.853868   -2.607275    0.107966
N      -3.704830   -2.687692    1.136732
N      -4.800450   -3.202813    0.592524
N      -4.750971   -3.475041   -0.702940
C      -3.515299   -3.100047   -1.034854
H       1.101729    1.917819   -0.120147
H      -0.231671    1.734151   -1.267310
H      -0.569036    2.114710    0.425057
H       0.698276   -0.511625   -0.568668
H       0.359917   -0.133954    1.110197
H      -2.097058    0.002380    0.587636
H      -1.759496   -0.369016   -1.093894
H      -0.788199   -2.587397   -0.399479
H      -1.137832   -2.207484    1.283922
H      -5.622962   -3.393526    1.141202
H      -3.160420   -3.200708   -2.048492
