17

C      -0.105317    1.622321    0.195854
C      -0.006071    0.111889    0.030998
C       0.670618   -0.515783   -1.239959
C       1.243264    0.442196   -2.297633
C       2.055597   -0.275689   -3.277737
N       2.695886   -0.874796   -4.030384
N       1.664237   -1.099057   -0.340263
C       1.117053   -0.607381    0.824583
O       1.417688   -0.718303    1.980724
H       0.856083    2.120484    0.039967
H      -0.835562    2.056698   -0.494487
H      -0.427825    1.853635    1.214852
H      -0.975214   -0.355828    0.227959
H       0.044830   -1.264451   -1.738043
H       0.426124    0.953071   -2.819358
H       1.863183    1.208290   -1.822614
H       2.390334   -1.781787   -0.505419
