20

C      -0.336653    1.568250    0.105862
C      -0.026199    0.085938    0.001479
C       0.574421   -0.503613   -1.317942
C       1.334015    0.446589   -2.236833
O       2.498695    0.866313   -1.523285
C       2.807526   -0.061577   -0.487756
C       2.322413    0.397863    0.907651
N       1.106673   -0.478515    0.836851
C       1.673353   -1.112511   -0.424279
H       0.479112    2.194082   -0.265163
H      -1.235273    1.804929   -0.473897
H      -0.532405    1.841562    1.148553
H      -0.922551   -0.479221    0.279170
H      -0.081161   -1.182333   -1.866288
H       1.621160   -0.069438   -3.166048
H       0.763938    1.341255   -2.509483
H       3.846898   -0.389245   -0.585314
H       2.966823    0.044165    1.719015
H       2.150963    1.469603    1.031118
H       1.897771   -2.179613   -0.425896
