14

O       0.037969    1.419925    0.034875
C       0.022735    0.045507   -0.006791
C       0.983751   -0.480773   -1.046321
O       1.646583    0.273807   -1.716794
C       0.000451   -0.717022    1.373096
N      -1.430077   -0.198009    1.519385
C      -1.384853   -0.662312    0.063592
C      -0.669383   -1.901384    0.643590
O      -0.781276   -3.086796    0.712417
H       0.684008    1.689055   -0.638471
H       1.050431   -1.579736   -1.163163
H       0.725087   -0.666129    2.182457
H      -1.993405   -0.836987    2.088595
H      -2.230208   -0.549541   -0.611240
