23

C      -0.071414    0.843895   -2.037125
C       0.051649   -0.304501   -1.057946
C       1.337200   -0.666387   -0.325513
C       1.623203   -2.144149   -0.125320
C       2.586825    0.174560   -0.511279
C       0.170075   -0.074713    0.423895
C       0.087901    1.240163    1.196581
O      -0.687913    0.605791    2.236447
C      -0.657189   -0.670119    1.559841
H       0.498531    1.722779   -1.723586
H       0.285659    0.557103   -3.032338
H      -1.117075    1.155401   -2.138373
H      -0.556944   -1.166417   -1.329773
H       2.147705   -2.561300   -0.993088
H       2.256388   -2.311405    0.754335
H       0.703508   -2.721174    0.013489
H       2.366617    1.239589   -0.615375
H       3.258595    0.061503    0.347782
H       3.140349   -0.138885   -1.404110
H       1.036391    1.639773    1.580302
H      -0.468155    2.053619    0.710778
H      -1.664840   -1.016375    1.291780
H      -0.165078   -1.442793    2.166125
