18

C      -0.001515    1.544879    0.020723
C       0.049289    0.015564   -0.016544
N       0.702779   -0.504847   -1.209158
C       0.074917   -0.854198   -2.370881
C       1.026104   -1.231974   -3.296905
C       2.286906   -1.102819   -2.674912
C       2.072025   -0.647955   -1.380346
C       2.990131   -0.360597   -0.352104
C       3.772116   -0.110683    0.532137
H       1.008543    1.962655    0.025787
H      -0.535215    1.939272   -0.848935
H      -0.517952    1.881677    0.925085
H       0.588936   -0.365328    0.854769
H      -0.960307   -0.404846    0.012729
H      -1.000827   -0.810966   -2.442620
H       0.829967   -1.571557   -4.301985
H       3.254282   -1.320610   -3.099441
H       4.470337    0.101679    1.302979
