19

C       0.002269    1.642813    0.071176
C       0.010514    0.112567    0.070488
N       0.722450   -0.457551    1.219903
C      -0.069882   -0.702809    2.411326
C       2.064002   -0.670713    1.086631
O       2.675150   -0.398026    0.071326
C       2.789551   -1.292300    2.300912
C       4.198282   -1.544600    2.017362
N       5.318153   -1.768653    1.850869
H       1.023662    2.023898   -0.003228
H      -0.567364    2.017202   -0.784921
H      -0.456194    2.045320    0.980454
H      -1.011697   -0.280893    0.091544
H       0.499760   -0.255423   -0.832584
H       0.551268   -1.000516    3.254048
H      -0.610397    0.204653    2.705460
H      -0.810162   -1.494271    2.236209
H       2.722853   -0.623639    3.166954
H       2.316106   -2.235483    2.595411
