17

C       0.029216    1.589604    0.105072
C       1.546182    1.818366    0.003158
N       2.007784    0.827456    1.049096
C       1.577540   -0.180047    0.020438
C       1.978093    0.800916   -1.110368
N       1.296523    0.723996   -2.385475
C       0.189763    0.103433   -2.370924
O      -0.472835   -0.394957   -1.300403
C       0.052115    0.038947   -0.027380
H      -0.357037    1.921743    1.069774
H      -0.545674    2.055935   -0.697031
H       1.923738    2.838829    0.061360
H       3.029208    0.829273    1.052802
H       1.938840   -1.204586    0.095645
H       3.059521    0.831252   -1.265994
H      -0.363186   -0.092809   -3.287358
H      -0.522287   -0.496970    0.725436
