18

C      -0.180443    1.456151   -0.084290
N      -0.163824    0.014047   -0.232869
C       0.846825   -0.644680   -0.873101
O       1.805394   -0.074839   -1.372289
C       0.700564   -2.123210   -0.935221
C       1.926996   -3.006636   -1.130288
C       0.867019   -3.015334   -2.164697
O      -0.226042   -3.854298   -1.789936
C      -0.505312   -3.015643   -0.639674
H      -0.151149    1.750273    0.970959
H       0.707498    1.841873   -0.585981
H      -1.072591    1.894161   -0.545612
H      -0.910177   -0.521021    0.177609
H       2.811433   -2.427645   -1.372471
H       2.068170   -3.878679   -0.498178
H       0.986658   -2.759835   -3.210652
H      -0.502305   -3.579994    0.300473
H      -1.473350   -2.514929   -0.768690
