21

C      -0.294539    1.446930   -0.121672
C       0.591822    0.198276   -0.188281
O       1.784936    0.441353   -0.906286
C       0.894904   -0.375279    1.196414
O       1.486917    0.644915    2.002911
C       2.536404    0.245453    2.825580
C       3.896342    0.225989    2.117858
C       5.070596   -0.239207    2.953927
O       4.018748    0.569069    0.964023
H       0.192950    2.229375    0.465610
H      -0.465624    1.825215   -1.132491
H      -1.264900    1.224448    0.336834
H       0.055490   -0.586120   -0.741316
H       2.447300    0.779458   -0.283993
H      -0.025079   -0.731032    1.683619
H       1.580673   -1.224309    1.081933
H       2.609872    0.970067    3.649095
H       2.364630   -0.737409    3.295840
H       4.990979   -1.318996    3.127512
H       6.004143   -0.030619    2.430659
H       5.073753    0.243232    3.937004
