17

C       0.003803    1.445374    0.034387
N      -0.048754    0.001863    0.021279
C      -1.183226   -0.802722    0.025691
C      -0.787255   -2.095276    0.003823
C      -1.564794   -3.363094    0.012930
O      -1.210333   -4.232321   -1.059871
N       0.608245   -2.082291   -0.014694
C       1.102327   -0.786772   -0.027270
O       2.258824   -0.411153   -0.072277
H       1.058614    1.724705    0.010261
H      -0.500742    1.870740   -0.840050
H      -0.455935    1.852457    0.941444
H      -2.176163   -0.387095    0.070208
H      -1.358993   -3.945179    0.919396
H      -2.637670   -3.121731    0.016078
H      -1.351173   -3.747653   -1.880806
H       1.197829   -2.886563   -0.140802
