20

C       0.056908    1.357206   -0.371882
O      -0.047156    0.159841    0.365936
C      -1.298902   -0.461681    0.243501
C      -1.557274   -1.353175   -0.989099
C      -0.677693   -2.508438   -0.414982
C      -1.358954   -1.861582    0.854639
C      -2.473842   -2.307078   -0.165846
N      -1.752696   -3.514182   -0.675590
C      -1.761471   -4.679528    0.202453
H       1.047811    1.774633   -0.177708
H      -0.049477    1.186919   -1.453732
H      -0.703676    2.091544   -0.063017
H      -2.109281    0.233354    0.514429
H      -1.683199   -1.108897   -2.042889
H       0.380058   -2.702983   -0.588633
H      -1.244526   -2.138317    1.901370
H      -3.557368   -2.260111   -0.045795
H      -2.727678   -5.187947    0.116213
H      -0.987027   -5.380888   -0.125735
H      -1.587997   -4.451048    1.267549
