14

N       0.076284   -1.141675    0.139353
C       0.081236    0.009926    0.035585
C       0.058352    1.427620   -0.137659
C      -0.718058    2.249210   -1.187225
C       0.482518    3.230221   -1.171030
C       1.081509    3.964449   -2.284057
O       0.415919    4.631919   -1.198450
C       1.174180    2.412173   -0.095940
O       0.257841    2.276578    0.994338
H      -0.851297    1.742057   -2.144429
H      -1.668064    2.642239   -0.822727
H       2.160002    4.108323   -2.326987
H       0.564940    3.997275   -3.241724
H       2.227758    2.271084    0.114211
