16

C      -0.096403    1.596959   -0.019035
C      -0.008003    0.060472    0.013643
C       0.817853   -0.517666   -1.137159
C       1.852715   -1.273447   -0.725971
C       1.832632   -1.294800    0.732722
N       2.537104   -1.827946    1.696386
O       1.892274   -1.382345    2.864392
C       0.830968   -0.605882    2.534835
C       0.734269   -0.509248    1.191953
H       0.900539    2.043077    0.035100
H      -0.576741    1.937689   -0.941547
H      -0.684520    1.968394    0.825239
H      -1.029155   -0.343070   -0.040710
H       0.568141   -0.308903   -2.171224
H       2.574261   -1.780422   -1.351512
H       0.273238   -0.219220    3.373637
