19

C       0.032241    1.648255    0.205495
C       0.086676    0.120396    0.151260
C      -1.275790   -0.513704   -0.181308
C      -1.247051   -2.009662   -0.180453
C      -1.534395   -2.903171   -1.194696
N      -2.009018   -2.762968   -2.500842
N      -1.333979   -4.118529   -0.627079
N      -0.932974   -4.003347    0.662759
N      -0.893340   -2.733463    0.925476
H       1.011537    2.072256    0.447839
H      -0.284656    2.072198   -0.754656
H      -0.676671    1.992213    0.966959
H       0.823777   -0.202980   -0.594260
H       0.426893   -0.281540    1.111311
H      -2.019880   -0.158919    0.544016
H      -1.616615   -0.153142   -1.161740
H      -2.170194   -1.791064   -2.732089
H      -1.392990   -3.166606   -3.198136
H      -1.482860   -5.030881   -1.026774
