18

N      -0.055571   -1.163513   -0.065002
C      -0.050028   -0.007837   -0.010931
C      -0.036529    1.446957    0.039048
C      -0.355462    2.180624   -1.308554
C       0.860129    3.113918   -1.064117
C       1.354106    2.195798    0.091754
C       1.468594    2.833709    1.486542
C       0.055900    2.745411    2.017393
C      -0.745510    2.000540    1.257712
H      -0.222992    1.521869   -2.169172
H      -1.342013    2.645100   -1.366203
H       1.545173    3.231159   -1.905518
H       0.573385    4.107576   -0.710964
H       2.208806    1.578344   -0.183914
H       2.168754    2.298189    2.141216
H       1.829793    3.868122    1.426900
H      -0.252069    3.235912    2.934534
H      -1.788458    1.780764    1.454153
