20

C      -0.179060    1.539403   -0.018603
C       0.061755    0.037039   -0.024873
C       0.775967   -0.513980   -1.288324
O       1.975324    0.261307   -1.540443
C       2.654695   -0.547493   -0.546244
C       2.315019   -0.001933    0.858239
N       0.916543   -0.466102    1.105730
C       1.047711   -1.894043    0.718586
C       1.604821   -1.689236   -0.692851
H       0.722202    2.091243   -0.291940
H      -0.955001    1.795781   -0.747413
H      -0.515711    1.866428    0.968867
H      -0.902020   -0.477006    0.082073
H       0.155596   -0.627441   -2.180657
H       3.713055   -0.692947   -0.773819
H       2.961016   -0.435389    1.629539
H       2.396680    1.084852    0.907745
H       1.733582   -2.417960    1.390749
H       0.075763   -2.394668    0.745288
H       1.844914   -2.536308   -1.330978
