18

C      -0.252251    1.634155   -0.468461
C      -0.077618    0.284763    0.221881
N      -1.323163   -0.480564    0.141217
C      -1.501352   -1.334256   -1.010792
C      -1.270466   -1.940944    0.350152
C      -0.042150   -2.624906    0.614666
C       0.972491   -3.225766    0.889120
C       2.200305   -3.911691    1.182696
O       2.272354   -5.009157    1.689118
H       0.661131    2.229360   -0.377840
H      -0.467215    1.505677   -1.534333
H      -1.078718    2.193143   -0.021272
H       0.771181   -0.261715   -0.218738
H       0.149768    0.427973    1.283889
H      -2.499473   -1.378187   -1.437706
H      -0.683463   -1.419322   -1.724778
H      -2.132104   -2.332047    0.885476
H       3.111159   -3.343791    0.901879
