20

C       0.177879    1.643303   -0.014979
C       0.112940    0.113797   -0.021907
C       0.608926   -0.541469    1.278479
C      -0.259972   -0.188892    2.504250
C       0.621218   -2.065413    1.119857
O      -0.147338   -2.670540    0.418481
N       1.602670   -2.697709    1.907968
C       1.839427   -4.061790    2.058629
O       1.236436   -4.957679    1.538153
H       1.194487    2.000953    0.186242
H      -0.124945    2.043099   -0.987308
H      -0.484313    2.082427    0.737379
H      -0.909676   -0.226632   -0.212885
H       0.713646   -0.270832   -0.853914
H       1.636026   -0.200903    1.474594
H       0.100548   -0.687612    3.409545
H      -0.252719    0.887231    2.692968
H      -1.294918   -0.503275    2.337419
H       2.213926   -2.093742    2.437827
H       2.692762   -4.222110    2.750632
