22

C      -0.107587    1.548641   -0.127093
C      -0.015239    0.011445   -0.054659
N      -1.322296   -0.627228    0.045778
C      -1.216597   -2.080794    0.076369
C      -2.115761   -0.147482    1.168775
C       0.720280   -0.427067   -1.323920
O       0.183910   -0.541036   -2.403941
C       2.216439   -0.687414   -1.210072
O       2.788432   -0.922292   -2.459722
H       0.871170    1.980119   -0.357114
H      -0.808017    1.836505   -0.915362
H      -0.435446    1.974972    0.822746
H       0.631357   -0.253680    0.809115
H      -0.658613   -2.457082    0.956058
H      -2.219244   -2.516374    0.105871
H      -0.724957   -2.445690   -0.828272
H      -2.343464    0.914920    1.063389
H      -3.066855   -0.687260    1.184423
H      -1.625516   -0.301795    2.150056
H       2.696206    0.166680   -0.705267
H       2.344224   -1.549901   -0.530813
H       2.037699   -0.937773   -3.076288
