23

C      -0.174641    1.583784   -0.088572
C       0.028248    0.078465    0.007430
C       1.038343   -0.623337   -0.944854
C       1.392781   -1.595076    0.227047
C       2.805280   -2.012522    0.479815
C       3.496534   -1.589932    1.539758
C       2.941329   -0.596857    2.532976
C       1.863156    0.287991    1.884809
C       0.777725   -0.564568    1.220808
H       0.770308    2.130768   -0.011644
H      -0.630072    1.850950   -1.048917
H      -0.837759    1.950068    0.703631
H      -0.944828   -0.417593   -0.088902
H       0.648613   -1.057991   -1.868980
H       1.882656    0.026942   -1.194560
H       0.752284   -2.482899    0.156420
H       3.258299   -2.705618   -0.226854
H       4.508758   -1.950947    1.705945
H       2.527524   -1.123470    3.406111
H       3.752538    0.028524    2.924512
H       1.421429    0.965914    2.623785
H       2.357319    0.918486    1.136483
H       0.132029   -0.994637    1.993904
