19

C       0.027983    1.539407    0.078695
C       0.102374    0.011450    0.074859
C       0.738007   -0.545230   -1.193297
O       2.093427   -0.103567   -1.263780
C       2.804493   -0.695853   -2.312413
O       2.972178   -2.074638   -2.120696
C       1.731552   -2.757951   -2.120524
C       0.643189   -2.073815   -1.291960
O      -0.277910   -2.700696   -0.827758
H       1.023102    1.978786   -0.028776
H      -0.593976    1.908056   -0.744866
H      -0.407219    1.903907    1.013586
H       0.688305   -0.342776    0.930594
H      -0.892111   -0.433614    0.166812
H       0.191133   -0.161597   -2.078286
H       2.295771   -0.503184   -3.277338
H       3.801709   -0.252827   -2.316138
H       1.336070   -2.852521   -3.148779
H       1.896435   -3.765181   -1.732698
