21

C      -0.052056    1.523658   -0.086777
C       1.511924    1.575345    0.034573
C       1.434345    0.215195    0.758651
C       2.219121   -1.109715    0.815330
C       1.250073   -1.430861    2.002175
C       1.232190    0.093795    2.290370
C      -0.162468   -1.825635    1.504885
O      -0.844886   -0.728185    0.887261
C       0.064399   -0.005200    0.092225
H      -0.535636    1.987235    0.776157
H      -0.512718    1.897027   -1.003125
H       1.998451    1.508334   -0.943144
H       1.946968    2.410759    0.587499
H       2.183112   -1.749771   -0.073024
H       3.253849   -1.013268    1.159125
H       1.593394   -2.124024    2.773337
H       2.120945    0.418142    2.838874
H       0.333171    0.523071    2.737772
H      -0.095021   -2.676348    0.806664
H      -0.792293   -2.128800    2.347164
H       0.190992   -0.493091   -0.889390
