21

C       0.122084    1.468774   -0.003819
O      -0.147356    0.085592   -0.100005
C       0.567046   -0.571652   -1.118025
C       1.907624   -1.242490   -0.628872
C       2.623520   -0.761722    0.624875
C       1.104798   -2.552887   -0.529222
O       1.260418   -3.567268    0.088064
C      -0.049324   -1.987217   -1.371721
C      -1.483804   -2.291472   -0.967363
H       1.168835    1.674350    0.257838
H      -0.108033    1.985977   -0.947710
H      -0.522190    1.866686    0.783799
H       0.655433    0.072709   -2.001620
H       2.604429   -1.322634   -1.473449
H       1.903858   -0.549753    1.419815
H       3.299742   -1.543126    0.984274
H       3.214979    0.140031    0.439309
H       0.128164   -2.264822   -2.418949
H      -1.686489   -1.927867    0.041669
H      -2.197436   -1.818584   -1.648758
H      -1.653976   -3.371799   -0.987614
