23

C      -0.179963    1.507813    0.123411
C      -0.057758    0.000274    0.103320
C       1.251149   -0.663433   -0.268092
C       0.741456   -0.725876    1.145931
C       1.460126   -0.153032    2.378186
C       1.371129   -1.566333    3.029516
C       0.891017   -1.636624    4.463219
O       0.743732   -3.006246    4.811311
C       0.379175   -2.005371    1.911766
H       0.744214    1.975145    0.479429
H      -0.386181    1.904300   -0.877104
H      -0.990926    1.835811    0.784083
H      -0.953639   -0.518594   -0.233042
H       1.223844   -1.568785   -0.867107
H       2.102103   -0.019112   -0.473165
H       2.463137    0.255627    2.228654
H       0.860295    0.592170    2.914600
H       2.319494   -2.104895    2.946018
H       1.615051   -1.130675    5.124175
H      -0.067054   -1.097003    4.555263
H       0.404386   -3.054507    5.709672
H      -0.659104   -2.018060    2.262313
H       0.587323   -2.957521    1.417225
