20

C       1.053462    0.897112    0.066627
O       0.133365   -0.131033   -0.218869
C       0.696429   -1.169050   -0.959460
C      -0.334635   -2.268958   -1.199727
O      -1.448767   -2.218062   -0.745248
C       0.132803   -3.446417   -2.062687
C       1.337962   -4.173632   -1.498383
C       2.236736   -4.956874   -2.379028
N       2.711756   -3.704543   -1.759049
H       1.909844    0.528817    0.653145
H       1.442768    1.365298   -0.851646
H       0.522079    1.652091    0.650167
H       1.064237   -0.818606   -1.943843
H       1.571494   -1.613625   -0.452150
H      -0.720735   -4.125719   -2.147855
H       0.370803   -3.079600   -3.071223
H       1.204599   -4.528256   -0.477715
H       2.711640   -5.860723   -2.009064
H       2.025961   -4.960861   -3.445637
H       2.696718   -2.961622   -2.454774
