20

C       0.138973    1.552828   -0.356944
O      -0.289452    0.216902   -0.500067
C       0.663441   -0.628836   -1.101784
C       1.881672   -1.020963   -0.221144
C       2.150344   -2.447838   -0.646400
C       1.136651   -2.959139   -1.346190
C       0.037251   -1.971366   -1.496969
C      -1.393613   -2.278075   -1.224165
N      -0.921311   -2.078529   -2.607010
H       0.990452    1.643440    0.332962
H       0.431544    1.990295   -1.324483
H      -0.701743    2.120670    0.048709
H       1.042005   -0.148890   -2.022088
H       2.742972   -0.359806   -0.363791
H       1.602911   -0.965512    0.840530
H       3.056448   -2.976949   -0.374442
H       1.065938   -3.963428   -1.745821
H      -1.689556   -3.296016   -0.984765
H      -1.981659   -1.496218   -0.755591
H      -1.179168   -1.141052   -2.911542
