20

C       2.915598   -0.689486    0.381326
N       1.597344   -1.294850    0.492888
C       1.407996   -2.318847    1.512155
C       0.741921   -0.988389    1.644184
C       1.126876   -0.028787    2.740449
C       0.829561    1.510995    2.541256
C      -0.076104    1.448403    3.776584
O      -1.092644    0.475846    3.502924
C       0.182378    0.011871    3.960611
H       3.474449   -0.614879    1.327984
H       3.515856   -1.289340   -0.310490
H       2.820367    0.316347   -0.040827
H       0.845571   -3.199886    1.213318
H       2.239701   -2.522198    2.187950
H      -0.310408   -0.917622    1.376914
H       2.159674   -0.174037    3.065777
H       1.720915    2.127670    2.677207
H       0.323463    1.794525    1.615328
H      -0.315057    2.221773    4.496910
H       0.191741   -0.607764    4.850305
