15

O       0.020686    1.273332   -0.172488
C       0.007811   -0.121916   -0.015442
C       0.097918   -0.605740    1.465319
C      -1.406218   -0.278926    1.601082
C      -1.456692   -0.617458    0.093487
O      -1.456891   -2.045759   -0.069007
C      -0.556897   -2.759071    0.657417
O      -0.496956   -3.947082    0.600270
O       0.274851   -2.033028    1.451492
H       0.923122    1.586366   -0.049496
H       0.647177   -0.646493   -0.736314
H       0.843576   -0.203942    2.151101
H      -2.003179   -0.885396    2.283545
H      -1.565986    0.785278    1.769481
H      -2.224523   -0.219647   -0.567356
