22

C      -0.051007    1.388644    0.187110
C      -0.113708   -0.105453   -0.148146
N       0.706131   -0.489466   -1.288202
C       2.157333   -0.602814   -1.132073
C       2.607560   -1.929948   -0.557433
C       2.704051   -3.133824   -1.460132
C       3.959760   -2.474918   -0.946879
C       0.145171   -0.769901   -2.495886
O       0.747844   -1.103435   -3.497522
H       0.967898    1.707627    0.425908
H      -0.405165    1.989675   -0.655665
H      -0.680195    1.607144    1.055794
H       0.187682   -0.699344    0.723578
H      -1.147787   -0.387991   -0.372061
H       2.587808   -0.469646   -2.127650
H       2.504284    0.224097   -0.502014
H       2.296607   -2.116292    0.467444
H       2.431518   -4.101561   -1.053660
H       2.439216   -2.989106   -2.501099
H       4.554689   -1.899848   -1.649185
H       4.543266   -2.987614   -0.190292
H      -0.957010   -0.653242   -2.474744
