16

O      -0.593736    1.190679    0.763991
C      -0.034842    0.089174    0.081471
C       0.554893   -1.006379    1.030328
C      -0.776427   -1.741239    0.889103
C      -1.182441   -0.882185   -0.308109
O      -0.964282   -3.135511    1.005835
C      -1.640696   -2.292180    1.950205
C      -1.172539   -2.350374    3.317200
N      -0.801703   -2.368754    4.411925
H       0.122623    1.691181    1.168317
H       0.620719    0.408326   -0.736956
H       1.372352   -1.570727    0.572589
H       0.848154   -0.683041    2.031818
H      -2.182267   -0.445400   -0.315300
H      -0.995385   -1.401364   -1.251661
H      -2.722105   -2.243557    1.840036
