18

C      -0.039595    1.696354    0.037644
C       0.016638    0.179935   -0.006359
C       0.828661   -0.588474   -1.110488
C       2.231773   -0.018344   -0.892183
O       2.292955   -0.039442    0.556594
C       1.017457   -0.583980    0.900385
C       0.898995   -1.791921   -0.094556
C      -0.293461   -2.607419    0.007408
N      -1.236750   -3.271541    0.094605
H       0.955371    2.137323    0.135243
H      -0.511552    2.099463   -0.864715
H      -0.633142    2.029176    0.895242
H      -0.982428   -0.253550    0.076157
H       0.471633   -0.717044   -2.130634
H       3.030108   -0.642707   -1.307432
H       2.349639    1.004541   -1.263201
H       0.929233   -0.689781    1.979709
H       1.787287   -2.425722   -0.150727
