18

C       0.075637    1.556200    0.054427
C       0.024254    0.026908    0.041693
N      -1.344687   -0.504219    0.054956
C      -2.011507   -0.619572   -1.163253
N      -1.454832   -0.276111   -2.255071
C      -2.030298   -0.873026    1.216958
C      -1.280906   -0.741215    2.530013
O      -3.171114   -1.288566    1.178824
H       1.116282    1.894494    0.032173
H      -0.434244    1.957423   -0.824024
H      -0.396702    1.970020    0.951188
H       0.491809   -0.345815   -0.871771
H       0.568609   -0.389694    0.889947
H      -3.014941   -1.024288   -1.036303
H      -2.089029   -0.443849   -3.033773
H      -0.871703    0.262100    2.676019
H      -1.985739   -0.967457    3.329177
H      -0.448373   -1.450681    2.581659
