21

C       0.197507    1.656590    0.196702
O       1.460724    1.519639   -0.484681
C       1.218408    0.115612   -0.746769
C       2.372937   -0.750576   -0.340004
C       2.235106   -2.007688    0.079326
C       0.886122   -2.681585    0.199512
C       0.018555   -2.128425    1.358121
C       0.040137   -0.593862    1.480484
C      -0.063387    0.136658    0.144443
H       0.317494    2.091136    1.197339
H      -0.510771    2.270692   -0.375318
H       0.986537   -0.031112   -1.814667
H       3.350665   -0.280024   -0.409310
H       3.116890   -2.577027    0.361910
H       0.335682   -2.553058   -0.741211
H       1.008338   -3.761456    0.327252
H      -1.010643   -2.477107    1.208580
H       0.353413   -2.558430    2.309069
H      -0.778329   -0.269674    2.135262
H       0.968165   -0.281378    1.971680
H      -0.975147   -0.149600   -0.387437
