17

C       0.114195    1.551413   -0.196551
C       0.090717    0.053777    0.026273
N       1.037964   -0.726335   -0.806286
C       1.345769   -1.636200    0.309701
C       2.746350   -2.037461    0.430474
N       3.844720   -2.382078    0.528228
C       0.765910   -0.562988    1.307525
C       1.738260    0.261945    1.988218
C       2.542852    0.943029    2.565169
H       1.128936    1.940645   -0.090590
H      -0.245541    1.786902   -1.203830
H      -0.536636    2.060307    0.522070
H      -0.941490   -0.323011   -0.036869
H       0.658193   -1.168878   -1.636198
H       0.728115   -2.545150    0.345960
H       0.060046   -0.986818    2.024713
H       3.265017    1.535964    3.070190
