18

C       0.206882    1.570924   -0.067301
C      -0.063460    0.066377   -0.024313
O       0.511764   -0.474892   -1.203745
C       0.233863   -1.833637   -1.447020
C       1.272523   -2.790829   -0.867362
O       1.708063   -3.732107   -1.498739
N       1.692501   -2.551995    0.424664
C       1.240808   -1.637681    1.379435
C       0.475631   -0.552444    1.237707
H       1.283566    1.760614   -0.050608
H      -0.211907    1.999761   -0.981032
H      -0.248773    2.066678    0.794501
H      -1.158675   -0.087518   -0.060879
H      -0.761042   -2.117213   -1.067343
H       0.244445   -1.994055   -2.527300
H       2.356269   -3.244699    0.740459
H       1.576324   -1.907211    2.375765
H       0.224238   -0.025531    2.153461
