15

N      -0.150276   -1.122571    0.024198
C      -0.037752    0.020137    0.151250
C       0.117348    1.465087    0.293644
C       1.361798    1.996820   -0.450939
C       1.450950    3.496394   -0.323850
O       1.774166    4.019157    0.965729
C       2.720179    4.218861   -0.085675
C       3.977686    3.510978    0.025741
N       4.990920    2.959618    0.095230
H      -0.790982    1.950438   -0.082495
H       0.194111    1.713211    1.357578
H       2.261631    1.528334   -0.044252
H       1.303022    1.730139   -1.511499
H       0.674301    4.063030   -0.841185
H       2.815919    5.245649   -0.433580
