22

C      -0.050329    1.386780   -0.250370
O      -0.061894   -0.019807   -0.288242
C      -1.283040   -0.569980    0.168452
C      -1.183768   -2.057479    0.163771
N      -1.256521   -2.843857   -1.092373
C      -2.239611   -3.094109   -0.011639
C      -1.547567   -4.038643    0.975971
C      -0.434074   -2.942694    1.181370
C       1.016095   -3.293677    0.885718
H       0.926527    1.716004   -0.612299
H      -0.832424    1.820665   -0.894408
H      -0.199538    1.771015    0.771657
H      -1.501816   -0.209229    1.188977
H      -2.120087   -0.242643   -0.475557
H      -1.707800   -2.251464   -1.789651
H      -3.301790   -2.975602   -0.192783
H      -2.126406   -4.230658    1.882058
H      -1.216565   -4.986594    0.543758
H      -0.529023   -2.507279    2.181986
H       1.108486   -3.696941   -0.125920
H       1.651116   -2.404571    0.957157
H       1.393630   -4.040323    1.593085
