17

N      -0.098501   -1.200838   -0.160020
C      -0.060665   -0.048649   -0.071167
C      -0.010770    1.408882    0.040699
C      -0.639240    1.964268    1.359842
C       0.584910    2.369944    2.171514
C       1.538985    1.182573    2.468185
C       2.309458    1.633089    1.236419
C       1.420327    1.960344    0.095192
N       1.579460    2.963057    1.168341
H      -0.528761    1.819896   -0.831233
H      -1.251724    2.839539    1.126100
H      -1.266500    1.230136    1.870495
H       0.373362    3.047885    2.997461
H       2.118337    1.347818    3.378491
H       1.125565    0.170005    2.484286
H       3.385265    1.571737    1.105424
H       1.894209    2.224496   -0.843997
