21

C      -0.415748   -0.873500   -0.841625
C      -0.262804    0.207744   -0.335234
C      -0.042569    1.500913    0.274640
C       0.164023    1.602928    1.819132
C       1.218128    2.708841    1.561193
C       1.343025    2.208154    0.097104
C       2.616010    1.387479   -0.244162
C       3.141026    2.609951   -1.045256
C       1.693297    3.172664   -1.057730
H      -0.564714   -1.826642   -1.284954
H      -0.832839    2.196625   -0.033854
H      -0.712189    1.853971    2.420083
H       0.614535    0.688904    2.212290
H       0.776029    3.709578    1.608398
H       2.123812    2.697894    2.172864
H       3.219669    1.027053    0.593574
H       2.379732    0.540443   -0.894573
H       3.816296    3.232345   -0.451900
H       3.612325    2.411446   -2.010362
H       1.160641    2.905812   -1.976428
H       1.555238    4.241905   -0.871804
