21

C      -0.832791    1.235899   -0.040504
C      -0.000875   -0.037145   -0.087956
C       1.300255   -0.052322   -0.944389
C       2.071649   -0.705344    0.240625
O       3.160096    0.020034    0.776413
C       2.614290    1.116952    1.506825
C       1.315586    0.595809    2.141580
C       0.820401   -0.485291    1.157660
O       0.208964   -1.590583    1.782970
H      -0.223058    2.113703    0.201757
H      -1.302757    1.425047   -1.011656
H      -1.630936    1.163757    0.706321
H      -0.640339   -0.882299   -0.358750
H       1.261561   -0.638705   -1.864451
H       1.681217    0.943233   -1.188276
H       2.386050   -1.738436    0.080149
H       3.362486    1.435937    2.236857
H       2.411337    1.968101    0.838751
H       1.535608    0.109335    3.099004
H       0.585588    1.385238    2.333429
H       0.784068   -1.894703    2.493881
