14

N      -0.027893    1.330705    0.046327
C      -0.076140   -0.006608   -0.088942
N      -1.156185   -0.665902    0.150372
C      -1.101191   -2.042706    0.093047
N      -2.280759   -2.674550   -0.074622
C      -2.209706   -3.993596   -0.101591
C      -0.990715   -4.659612    0.025701
N       0.143045   -3.982599    0.193348
N       0.091361   -2.662677    0.243298
H       0.792564    1.851438   -0.203187
H      -0.855246    1.826475    0.337180
H       0.857629   -0.475025   -0.409996
H      -3.141803   -4.541544   -0.228894
H      -0.910275   -5.740793   -0.001668
