14

C       0.683940    0.549860   -0.064874
O      -0.284590   -0.159910   -0.827574
C      -1.488505   -0.381590   -0.124171
C      -2.558123   -0.588348   -1.109918
N      -3.399672   -0.764921   -1.880439
C      -1.439513   -1.613936    0.832982
N      -0.496891   -2.518720    0.480167
O      -2.192851   -1.700077    1.775452
H       1.554909    0.675363   -0.710108
H       0.306769    1.538545    0.228352
H       0.977779   -0.003785    0.836656
H      -1.759763    0.477673    0.504209
H       0.047939   -2.381080   -0.354752
H      -0.434503   -3.384128    0.990494
