15

O      -0.176019    0.048858    0.312550
C      -0.026807    1.195916   -0.022761
C       1.267636    1.959162    0.062006
C       1.502327    2.911406    1.268780
C       1.353957    1.960380    2.488333
C       2.572214    1.234486    1.923658
C       2.998220    2.424239    1.152923
N       2.515370    1.219164    0.416165
H      -0.880110    1.801379   -0.413720
H       1.435665    2.484500   -0.886103
H       1.123278    3.930790    1.288115
H       1.611740    2.473613    3.418004
H       0.416213    1.411175    2.609405
H       3.170169    0.453390    2.372376
H       3.945981    2.912523    0.971530
