16

O      -0.006615    0.453246    1.237279
C      -0.147206    0.302892   -0.165646
C      -1.406405   -0.488769   -0.565040
O      -1.594301   -0.440546   -1.974204
C      -1.400151   -1.905548   -0.060915
C      -1.898717   -3.005185   -0.689011
O      -1.712368   -4.105126    0.053245
N      -1.069226   -3.746937    1.235090
C      -0.891925   -2.452371    1.156444
H      -0.692063    1.055847    1.543843
H      -0.178016    1.270537   -0.684769
H       0.747141   -0.232957   -0.504411
H      -2.276398    0.044876   -0.156194
H      -0.878210   -0.944137   -2.379421
H      -2.398706   -3.146059   -1.633985
H      -0.399906   -1.926586    1.960196
