18

N       0.176538    1.446683    0.305829
C      -0.041833    0.028219    0.068928
C      -1.494413   -0.445001    0.065240
C      -2.540839    0.448287   -0.664045
C      -2.809463   -0.709198   -1.670825
C      -1.575272   -1.452598   -1.119248
O      -0.402421   -1.219325   -1.922123
C       0.434482   -0.325259   -1.346855
O       1.409767    0.105777   -1.893823
H       0.282384    1.634648    1.296385
H       1.045995    1.711994   -0.150557
H       0.542230   -0.625994    0.741133
H      -1.831394   -0.836154    1.025586
H      -3.392723    0.767565   -0.061819
H      -2.083033    1.334440   -1.106969
H      -3.734680   -1.252704   -1.462277
H      -2.769725   -0.473648   -2.736133
H      -1.645541   -2.526258   -0.935708
