14

C      -0.081606    1.512007    0.020529
C      -0.012595    0.019719   -0.017088
C       0.216762   -0.805636   -1.102934
O       0.443594   -0.598755   -2.414926
N       0.187437   -2.086484   -0.641652
C      -0.059057   -2.007496    0.713312
N      -0.180982   -0.753793    1.101012
C      -0.156106   -3.163641    1.522796
N      -0.228061   -4.135641    2.149683
H       0.076850    1.950077   -0.971487
H      -1.057294    1.854721    0.379621
H       0.679225    1.927374    0.689109
H       0.435130    0.348755   -2.586897
H       0.321250   -2.918434   -1.193798
