17

O      -0.011446    1.364713    0.007364
C       0.053176   -0.020565    0.117467
C      -0.514488   -0.706738    1.358935
C      -1.240213   -0.762383    0.055115
O      -2.422400    0.013923   -0.173465
C      -2.838106   -0.892470   -1.224731
C      -1.714601   -1.904378   -0.854807
C      -0.828388   -2.375814   -1.896846
C      -0.084350   -2.756320   -2.760995
H      -0.923056    1.574297   -0.243101
H       0.934684   -0.452725   -0.348677
H      -0.030800   -1.608979    1.720704
H      -0.938739   -0.063099    2.123179
H      -3.865808   -1.234405   -1.078245
H      -2.722669   -0.448226   -2.218269
H      -2.109836   -2.743781   -0.274094
H       0.569742   -3.094623   -3.526285
