17

C      -0.793677    0.489399    0.391438
C       0.439356   -0.195063   -0.145240
O       1.422060   -0.415193    0.523554
C       0.376155   -0.626975   -1.603725
C       1.626948   -1.209786   -2.193928
N       0.479842   -2.046991   -1.901166
C       0.416052   -3.004743   -0.868097
N       1.325148   -4.018387   -1.019007
O      -0.402089   -2.949023    0.025851
H      -0.616483    0.840319    1.408318
H      -1.095400    1.324276   -0.250417
H      -1.610700   -0.241217    0.389856
H      -0.328761   -0.089382   -2.233414
H       1.848306   -1.060381   -3.247133
H       2.474222   -1.258106   -1.515290
H       1.770451   -4.153984   -1.911244
H       1.159508   -4.838983   -0.459499
