19

C      -0.644518    0.972310   -0.466937
O       0.386010    0.130535    0.013376
C       1.043126   -0.610006   -1.010576
C       2.383039   -1.073964   -0.439531
C       0.186178   -1.764083   -1.457347
N       0.150864   -2.310824   -2.652914
C      -0.730357   -3.364392   -2.548619
C      -1.234792   -3.448351   -1.278036
N      -0.635077   -2.419142   -0.586667
H      -0.252241    1.724743   -1.166714
H      -1.437759    0.407704   -0.976994
H      -1.071639    1.483055    0.399511
H       1.224598    0.025609   -1.889221
H       2.224382   -1.698765    0.444601
H       2.924487   -1.659070   -1.186827
H       2.987415   -0.209930   -0.150886
H      -0.955018   -3.995425   -3.395087
H      -1.946658   -4.110943   -0.814876
H      -0.785755   -2.149209    0.371249
