19

C       0.229517    1.499404   -0.491341
C       0.161519    0.023634   -0.183004
N       1.442972   -0.649625    0.132537
C       0.409883   -0.526116    1.165673
C       0.698054    0.164881    2.504956
C       0.400593   -1.197973    3.199517
O      -0.327024   -1.227004    4.399101
C      -0.262467   -1.704740    1.882429
H       0.953814    1.995644    0.159839
H       0.538560    1.668211   -1.528505
H      -0.747801    1.974442   -0.349515
H      -0.543403   -0.538558   -0.796330
H       1.446136   -1.593282   -0.248881
H       1.690498    0.598787    2.639433
H      -0.061466    0.915036    2.757460
H       1.326352   -1.741931    3.404369
H      -1.140378   -0.727948    4.267641
H      -1.353876   -1.602618    1.920627
H      -0.017818   -2.717075    1.547166
