21

O      -0.146101    1.450874    0.086005
C       0.020705    0.039980    0.022225
C       0.801253   -0.508933    1.221510
C       1.040393   -2.016708    1.062164
C      -0.229263   -2.791146    0.751212
O      -0.002140   -4.062707    0.195180
C      -1.466957   -2.629321    1.592849
C      -1.418243   -2.069308    0.177752
C      -1.386354   -0.560031   -0.050352
H       0.728339    1.852637    0.105061
H       0.569900   -0.236351   -0.894548
H       1.766160    0.007208    1.304268
H       0.248162   -0.285506    2.142189
H       1.730092   -2.187743    0.225976
H       1.526258   -2.425807    1.958253
H       0.359382   -4.625344    0.889435
H      -2.064959   -3.518725    1.757757
H      -1.458814   -1.923298    2.418024
H      -1.972060   -2.647183   -0.554221
H      -1.999858   -0.044120    0.698112
H      -1.822077   -0.318190   -1.024085
