18

C      -0.335845    1.501985   -0.036114
C       0.076261    0.017888    0.044797
N       0.804212   -0.432209   -1.150742
C       1.986167    0.104567   -1.609472
O       2.276891    0.190398   -2.774918
O       2.832886    0.548794   -0.633874
C       3.144527   -0.330089    0.453508
C       2.090069   -0.446576    1.515602
C       0.783696   -0.285179    1.340620
H       0.553815    2.136267   -0.067717
H      -0.935513    1.688502   -0.932359
H      -0.928687    1.785796    0.839167
H      -0.840833   -0.583697    0.045558
H       0.209155   -0.678110   -1.929340
H       3.412662   -1.319298    0.055398
H       4.053629    0.093280    0.891077
H       2.468049   -0.683571    2.507481
H       0.125652   -0.352407    2.203440
