16

C      -0.061250    1.558174    0.032426
C       0.010025    0.043713    0.056798
C      -1.158295   -0.648657   -0.421895
N      -2.089329   -1.220898   -0.803353
C       1.332590   -0.704815   -0.209812
O       2.491582    0.080909   -0.162160
C       2.842215    0.161248    1.212439
O       1.630336    0.074279    1.949133
C       0.770464   -0.709174    1.168297
H       0.864787    1.989229    0.410526
H      -0.219289    1.915740   -0.988444
H      -0.887968    1.910765    0.654691
H       1.360477   -1.554248   -0.882275
H       3.515963   -0.666791    1.484674
H       3.312845    1.127697    1.407444
H       0.321948   -1.562298    1.663810
