20

O       0.131862    1.389182   -0.029649
C       0.065687   -0.019101   -0.024806
C      -1.372095   -0.552359    0.061029
C      -1.455019   -2.080914   -0.128483
C      -2.868879   -2.606145    0.122049
N      -3.273486   -2.245400    1.477758
C      -3.388700   -0.800735    1.660357
C      -2.061985   -0.116636    1.350098
O      -1.621120    0.757514    2.068100
H      -0.244271    1.661455    0.818247
H       0.519216   -0.362858   -0.961350
H       0.654514   -0.452288    0.800390
H      -1.955737   -0.076173   -0.743753
H      -1.128019   -2.338742   -1.141577
H      -0.770829   -2.572703    0.573048
H      -3.552262   -2.203296   -0.651417
H      -2.886138   -3.696962    0.034341
H      -4.150049   -2.691988    1.721256
H      -4.145451   -0.332205    0.995733
H      -3.660784   -0.567125    2.692104
