24

C      -0.004746   -0.807071    0.933980
C      -0.184789   -0.070045   -0.399170
C       0.853641   -0.390474   -1.496925
C       2.290289    0.024034   -1.114576
C       2.466713    1.517757   -0.823486
C       0.811201   -1.889481   -1.925993
C      -0.590666   -2.395265   -2.327167
C       1.735503   -2.126809   -3.041872
N       2.444585   -2.315459   -3.935532
H      -0.085613   -1.893474    0.821493
H       0.965921   -0.594409    1.391831
H      -0.776297   -0.498689    1.645873
H      -1.190070   -0.265485   -0.787052
H      -0.153868    1.009130   -0.215877
H       0.567887    0.193885   -2.383028
H       2.623251   -0.561002   -0.247445
H       2.958929   -0.253440   -1.936380
H       2.109113    2.128996   -1.659685
H       1.928283    1.834369    0.074976
H       3.523683    1.755161   -0.669829
H       1.173697   -2.499115   -1.088080
H      -1.021758   -1.763262   -3.109295
H      -0.534446   -3.416837   -2.710780
H      -1.264061   -2.392431   -1.467962
