21

C      -0.415440    1.680173    0.207617
C      -0.369734    0.151201    0.223337
C       0.997679   -0.389425    0.689301
C       1.068009   -1.845356    0.716052
C       1.096142   -3.050262    0.735019
C       1.145851   -4.500443    0.752018
C       2.537308   -5.183761    0.630614
C       2.178220   -5.834007    1.979227
O       0.949541   -5.082793    2.070981
H       0.341069    2.094135   -0.468561
H      -1.392621    2.042512   -0.125168
H      -0.229136    2.093852    1.205059
H      -1.148934   -0.243774    0.884425
H      -0.584041   -0.243593   -0.776072
H       1.786567    0.002182    0.032398
H       1.221749    0.002796    1.690686
H       0.405641   -4.906276    0.048486
H       2.656444   -5.856018   -0.219748
H       3.372077   -4.484063    0.666418
H       1.992982   -6.915108    1.942068
H       2.851607   -5.618733    2.816771
