14

C      -0.004482    1.399257    0.009929
C       1.318214    1.812311   -0.000395
N       2.091792    0.692780   -0.013946
N       3.455467    0.689512   -0.026981
N       4.039627   -0.444898   -0.038628
C       3.329632   -1.619086   -0.038134
C       1.963092   -1.672853   -0.025369
C       1.266422   -0.457099   -0.012215
C      -0.046400   -0.010462    0.002610
H      -0.856575    2.062382    0.021658
H       1.773839    2.788104    0.000605
H       3.944875   -2.509626   -0.048813
H       1.428210   -2.615510   -0.025353
H      -0.923587   -0.638162    0.007520
