20

C      -0.094174    1.578512    0.140819
C      -0.039964    0.052485    0.017460
C       0.782997   -0.590115    1.140566
N      -1.391764   -0.504089   -0.012540
N      -2.268888   -0.211712    0.982185
C      -3.385235   -0.844575    0.643099
C      -3.242241   -1.572054   -0.554661
C      -1.935287   -1.333075   -0.944512
N      -1.213409   -1.726238   -2.082849
H       0.919280    1.990744    0.128285
H      -0.656774    2.015073   -0.688882
H      -0.581885    1.866074    1.074736
H       0.397149   -0.206194   -0.951964
H       0.842477   -1.675932    1.016654
H       1.800750   -0.188275    1.146400
H       0.318695   -0.383818    2.108619
H      -4.256635   -0.765501    1.277476
H      -3.966868   -2.190906   -1.059034
H      -1.806630   -2.235822   -2.724875
H      -0.409565   -2.305048   -1.863564
