16

C      -0.045471    1.430163   -0.268345
N      -0.013154   -0.022736   -0.279354
C      -1.030441   -0.649454    0.155674
O      -2.138303    0.028908    0.618654
N      -3.270358   -0.612920    1.158597
C      -3.275451   -1.906256    1.132470
N      -4.433100   -2.546144    1.551210
C      -2.176546   -2.720413    0.643603
C      -1.086270   -2.097606    0.178855
H       0.904273    1.810844   -0.651036
H      -0.857944    1.825636   -0.893185
H      -0.203398    1.830564    0.742378
H      -5.086166   -1.921469    2.006377
H      -4.281541   -3.395730    2.076779
H      -2.270568   -3.800554    0.658209
H      -0.215917   -2.616686   -0.202100
