21

C      -0.125623    1.396208   -0.642821
C      -0.031678    0.222462    0.340582
C      -1.343515   -0.516932    0.451579
O      -1.721964   -1.359358   -0.646571
C      -1.501893   -1.970033    0.633166
C      -0.375873   -2.969855    0.732627
C      -0.716029   -4.264963   -0.038829
C       0.335497   -5.269314    0.051752
C       1.219469   -6.078583    0.144704
H       0.827894    1.927325   -0.714361
H      -0.393953    1.038598   -1.641280
H      -0.888244    2.117160   -0.328679
H       0.759437   -0.461643    0.021243
H       0.244606    0.589444    1.337736
H      -2.167265    0.104133    0.815157
H      -2.427493   -2.301026    1.112973
H       0.552545   -2.554506    0.334869
H      -0.199232   -3.209946    1.787589
H      -1.656848   -4.683034    0.342953
H      -0.899144   -4.007693   -1.088866
H       1.991881   -6.803290    0.216814
