13

O      -0.125371    0.046889   -0.376410
C      -0.060084    1.169289   -0.026478
O      -1.131908    2.051911    0.287569
C      -0.164998    2.895719    1.052519
C       0.779120    4.175803    0.933750
O       1.875690    3.155379    1.092388
C       0.925428    2.365072    0.210080
C       0.917778    3.243539   -1.057033
C       0.822595    4.472359   -0.552314
H      -0.191689    2.552220    2.085664
H       0.815635    4.956561    1.691350
H       0.981944    2.880339   -2.071219
H       0.785627    5.442102   -1.024663
