18

C      -0.129322    1.505824   -0.041060
N       0.108994    0.074090    0.068802
C       1.388525   -0.556250   -0.166066
C       0.741579   -0.556399    1.195614
C       1.917949    0.276776    1.793563
C       2.695015   -0.462282    2.763054
C       3.356799   -1.125937    3.519116
C       2.584380    0.281785    0.347167
O       3.836954   -0.326128    0.236010
H       0.653466    2.152082    0.380060
H      -0.242810    1.759425   -1.099065
H      -1.069784    1.740906    0.466251
H       1.467736   -1.341972   -0.910748
H       0.220849   -1.339082    1.736742
H       1.642167    1.258706    2.192357
H       3.927446   -1.685823    4.218741
H       2.679664    1.275691   -0.099209
H       3.906858   -1.006858    0.918928
