15

C      -0.059028    1.513908    0.006252
C      -0.006106    0.024338    0.033974
N      -0.084971   -0.738482   -1.058316
N       0.000782   -1.976856   -0.595462
N       0.141288   -2.111281    0.723549
C       0.131368   -0.849317    1.132921
O       0.261391   -0.449169    2.420182
C       0.051649   -1.360908    3.417277
N       0.289774   -1.011485    4.601768
H       0.868759    1.951154    0.389452
H      -0.211021    1.860562   -1.017458
H      -0.874918    1.892550    0.630257
H      -0.025248   -2.776697   -1.205057
H      -0.320336   -2.319772    3.050549
H       0.069182   -1.775490    5.237805
