21

C      -0.467071    1.520875   -0.020145
C      -0.013999    0.067544   -0.049704
C       1.243827   -0.300805   -0.963469
C       2.007583   -0.489903    0.348606
C       2.866853   -1.104616    1.473319
C       1.879839    0.005612    2.065471
C       1.876964    0.596013    3.444613
O       2.273439    0.863370    0.943350
C       0.734541   -0.590954    1.186519
H       0.365057    2.187923    0.205521
H      -0.897870    1.809559   -0.986158
H      -1.242359    1.664562    0.740944
H      -0.868307   -0.566999   -0.303894
H       1.085683   -1.229298   -1.517690
H       1.634628    0.469614   -1.632882
H       2.682646   -2.152623    1.725227
H       3.923851   -0.832905    1.511844
H       2.874047    0.963659    3.706967
H       1.172555    1.431584    3.496228
H       1.577359   -0.156410    4.180548
H       0.361595   -1.579709    1.462675
