21

C      -0.916679   -0.013062   -1.683702
C      -0.793199   -1.309981   -0.915838
C       0.345595   -2.270296   -1.212897
C       0.325360   -1.518835    0.084331
O       1.316184   -0.522817    0.188238
C       0.064741   -2.255015    1.386316
C       1.269180   -3.039017    1.854444
C       1.142102   -4.245254    2.679629
O       1.437563   -4.342289    1.285031
H      -1.546112    0.710118   -1.151403
H       0.065576    0.442531   -1.833603
H      -1.367735   -0.179812   -2.667711
H      -1.741437   -1.773756   -0.652831
H       0.163550   -3.338341   -1.190491
H       1.084179   -1.946713   -1.938386
H       0.951254    0.204756    0.705406
H      -0.217220   -1.527917    2.162785
H      -0.780338   -2.941301    1.266681
H       2.193278   -2.464873    1.919980
H       1.949201   -4.533865    3.351780
H       0.151519   -4.592953    2.972716
