19

C      -0.433567    1.239498   -0.212576
C       0.349773   -0.051416   -0.117490
C       1.777897   -0.041255    0.394494
O       2.302130    1.191290    0.767987
C       0.665741   -0.662860    1.222156
O       0.188039    0.014301    2.349944
C       0.783168   -0.397594    3.566121
C       2.193016   -0.016308    3.716030
C       3.348167    0.295037    3.846483
H      -0.122720    1.940417    0.561680
H      -0.269070    1.713260   -1.185672
H      -1.506849    1.054008   -0.102426
H       0.142077   -0.770913   -0.905296
H       2.490109   -0.722975   -0.072538
H       2.628892    1.110078    1.673083
H       0.638649   -1.749326    1.321118
H       0.193113    0.071949    4.359990
H       0.693626   -1.488678    3.690803
H       4.368457    0.562789    3.976213
