20

C      -0.037531    1.559140   -0.017878
C       0.009863    0.029359    0.014923
C       0.743461   -0.516042    1.244317
C       0.781875   -2.047166    1.262114
N       1.476883   -2.574371    2.426455
N       2.790240   -2.773008    2.433792
C       3.039718   -3.175570    3.682320
C       1.833365   -3.196465    4.392926
N       0.852131   -2.806579    3.575437
H       0.971208    1.986013   -0.033286
H      -0.566317    1.921066   -0.904841
H      -0.551783    1.958028    0.863277
H      -1.012965   -0.369663   -0.005253
H       0.499210   -0.341900   -0.895297
H       1.772555   -0.137945    1.267472
H       0.254342   -0.165672    2.161115
H      -0.228479   -2.462695    1.284482
H       1.302716   -2.434776    0.383228
H       4.039807   -3.429395    3.995180
H       1.628958   -3.471132    5.415307
