16

N       0.058538    1.300144   -0.031398
C      -0.019983    0.033924   -0.022782
N      -1.226738   -0.640986   -0.000977
C      -1.482677   -2.091755   -0.010381
C      -2.982117   -1.743972   -0.029344
C      -4.092555   -2.397431   -0.758558
N      -4.082235   -2.341305    0.712030
C      -2.593408   -0.271064    0.013954
O      -3.154968    0.780298    0.029173
H       1.035276    1.588764   -0.045596
H       0.827253   -0.664722   -0.030096
H      -1.100086   -2.604768   -0.898410
H      -1.138620   -2.603154    0.895502
H      -4.850498   -1.780042   -1.231408
H      -3.881887   -3.341070   -1.255829
H      -3.795694   -3.236003    1.103165
