20

C      -0.118013    1.566803    0.034509
C      -0.035460    0.039293   -0.020692
C       0.755997   -0.471612   -1.231624
C       0.819728   -1.991042   -1.287249
C      -0.456470   -2.766512   -1.687911
O       0.235120   -3.441910   -2.766939
C       1.438548   -2.690605   -2.538815
C       1.785698   -1.823721   -3.671833
N       2.068366   -1.133766   -4.554992
H       0.879899    2.014966    0.092251
H      -0.608806    1.968889   -0.858305
H      -0.685650    1.902434    0.907550
H       0.427595   -0.339038    0.900272
H      -1.049906   -0.380766   -0.044591
H       0.305869   -0.089230   -2.156426
H       1.775831   -0.066507   -1.200495
H       1.272335   -2.385208   -0.373450
H      -0.854034   -3.478325   -0.957738
H      -1.273067   -2.138384   -2.065405
H       2.292956   -3.346471   -2.333765
