16

C      -0.054412    1.514238   -0.012927
C       0.029167    0.008999    0.016779
C      -0.796763   -0.808733    0.961258
C       0.718461   -0.782424    1.106441
C       1.413551   -1.922567    0.437174
O       2.158108   -2.732794    0.905967
O       1.063085   -1.937368   -0.889492
C       0.400947   -0.722597   -1.269270
H       0.881019    1.957888   -0.371045
H      -0.860467    1.850896   -0.675022
H      -0.258454    1.915808    0.983820
H      -1.352045   -0.276042    1.725552
H      -1.266521   -1.724106    0.614561
H       1.174659   -0.352702    1.987874
H      -0.466045   -0.985889   -1.883747
H       1.091721   -0.124499   -1.876356
