20

C       0.030235    1.468215    0.275775
C      -0.044248   -0.014896   -0.129595
C      -1.437635   -0.570013   -0.103038
C      -2.144322   -1.031175   -1.141004
C      -3.532641   -1.472074   -0.741910
C      -3.415811   -1.604789    0.797975
O      -3.118000   -2.941190    1.182762
C      -2.264366   -0.638814    1.169784
H       1.062755    1.828720    0.240714
H      -0.569467    2.087687   -0.398610
H      -0.342581    1.623841    1.293046
H       0.379467   -0.141869   -1.132263
H       0.591159   -0.595164    0.554823
H      -1.785782   -1.060370   -2.165032
H      -4.283766   -0.720984   -1.025645
H      -3.851661   -2.421860   -1.184840
H      -4.348506   -1.365438    1.314301
H      -2.307296   -3.192906    0.725143
H      -1.711820   -1.014522    2.038825
H      -2.647440    0.354535    1.442209
