19

C      -0.154846    1.537517    0.011248
C      -0.010943    0.009646    0.002581
C      -1.395016   -0.661327    0.004998
C       0.809131   -0.421763   -1.211892
O       1.150948   -1.815261   -1.173019
C       1.389686   -2.471461   -0.016547
O       1.757186   -3.607560   -0.024116
O       1.161121   -1.827446    1.148795
C       0.819522   -0.434494    1.205350
H       0.820336    2.035850    0.009630
H      -0.710545    1.880098   -0.867602
H      -0.702867    1.870807    0.898453
H      -1.969555   -0.357308   -0.875866
H      -1.325113   -1.751713   -0.000982
H      -1.961984   -0.366528    0.893866
H       0.257098   -0.287302   -2.146226
H       1.736813    0.161849   -1.275911
H       1.747676    0.148553    1.267621
H       0.275488   -0.310036    2.145743
