22

C      -0.107370    1.517303    0.035054
C       0.013563    0.019553    0.008306
C      -0.071287   -0.689238   -1.120551
C      -0.007509   -2.177822   -1.144913
C      -1.094667   -2.861919   -1.948213
N       1.363043   -2.757991   -1.185277
C       0.558788   -2.839075    0.057513
C       1.032225   -1.975703    1.220202
C       0.223789   -0.670537    1.342720
H       0.809576    1.981307    0.421138
H      -0.305826    1.927059   -0.959086
H      -0.918639    1.834402    0.703781
H      -0.220299   -0.184508   -2.073799
H      -1.027389   -2.589361   -3.008406
H      -1.014916   -3.951968   -1.873448
H      -2.089956   -2.570153   -1.595901
H       1.327834   -3.654415   -1.669062
H       0.152552   -3.814796    0.315720
H       0.977158   -2.537202    2.158993
H       2.085046   -1.728949    1.051680
H       0.731713    0.011803    2.034651
H      -0.756924   -0.873160    1.798644
