21

C       0.038314    1.375911    0.077473
O       0.019341   -0.027791   -0.019444
C      -1.282702   -0.568065    0.034232
C      -1.189474   -2.078560   -0.097517
C      -2.560934   -2.789976   -0.006935
C      -2.306801   -4.181388   -0.603752
C      -1.188028   -3.972392   -1.634155
O      -0.830534   -4.775828   -2.455706
C      -0.610126   -2.567794   -1.434912
H       1.082530    1.693939    0.029356
H      -0.516322    1.850868   -0.747541
H      -0.396718    1.726186    1.027143
H      -1.775039   -0.294595    0.984282
H      -1.904615   -0.156274   -0.781834
H      -0.550032   -2.444824    0.716196
H      -2.949559   -2.820838    1.014256
H      -3.295733   -2.249420   -0.617650
H      -1.921873   -4.874281    0.156255
H      -3.176132   -4.660581   -1.059826
H      -0.974024   -1.944075   -2.264535
H       0.479316   -2.569230   -1.494812
