15

C      -0.068559    1.562476   -0.033415
C       0.091301    0.059453    0.036622
O       1.164096   -0.462976   -0.811079
C       1.684843   -1.225716    0.278633
C       2.186218   -0.312606    1.367614
C       0.709838   -0.633726    1.257653
O      -0.023619   -1.241328    2.256380
H       0.842930    2.079296    0.279030
H      -0.303348    1.873019   -1.056385
H      -0.893214    1.882049    0.613322
H      -0.846171   -0.446688   -0.229263
H       2.032139   -2.233702    0.088374
H       2.669957   -0.826931    2.193295
H       2.594569    0.662916    1.118563
H      -0.020141   -0.666042    3.029140
