20

C       0.076044    1.354043    0.607382
O      -0.013911   -0.029045    0.853551
C       1.086336   -0.751351    0.345027
C       0.856402   -2.223603    0.638965
O       1.936646   -3.028411    0.117540
C       2.212521   -3.592419    1.417858
C       1.082431   -2.769226    2.077022
C       1.465440   -1.805203    3.191588
H       0.115301    1.573699   -0.471167
H      -0.815902    1.821870    1.031261
H       0.968057    1.796062    1.078904
H       1.179192   -0.620580   -0.746558
H       2.031047   -0.403504    0.792662
H      -0.108946   -2.516395    0.205186
H       2.085394   -4.681887    1.425631
H       3.228748   -3.352673    1.758538
H       0.245283   -3.391808    2.402373
H       2.360506   -1.227556    2.938839
H       0.655333   -1.098353    3.391482
H       1.679546   -2.352897    4.115522
