20

C       0.199219    0.952761   -0.610944
C      -0.373727    0.187770    0.592499
C       0.693766   -0.283202    1.544247
N       0.781350    0.166185    2.724824
C       1.854960   -0.256007    3.612393
C       2.745705   -1.373648    3.097931
C       2.151998   -2.738827    2.809033
C       2.518463   -1.810926    1.684622
O       1.491165   -1.211732    0.932776
H       0.891607    0.326174   -1.178887
H      -0.604702    1.269820   -1.281498
H       0.738472    1.847005   -0.283013
H      -1.059149    0.817582    1.162408
H      -0.930322   -0.687017    0.235158
H       2.476409    0.627073    3.811357
H       1.407300   -0.526707    4.578060
H       3.774280   -1.347794    3.444013
H       2.761396   -3.621470    2.968123
H       1.093096   -2.873346    3.006848
H       3.352924   -2.051964    1.036665
