19

O      -0.140123    1.349996    0.113005
C      -0.026991   -0.048764    0.078226
C      -0.156817   -0.694773    1.425107
C       1.185366   -0.691823    0.720552
C       1.674188   -1.985605    0.096953
O       0.591281   -2.753302   -0.429002
C      -0.090219   -2.105588   -1.465053
C      -1.546860   -1.812262   -1.240886
C      -0.532302   -0.690513   -1.192948
H       0.459422    1.713142   -0.548328
H      -0.283725   -0.008932    2.254312
H      -0.680097   -1.639061    1.515329
H       1.954360   -0.029798    1.107065
H       2.413517   -1.775418   -0.693115
H       2.152985   -2.630482    0.841226
H       0.253734   -2.379851   -2.461714
H      -2.215310   -1.855909   -2.093593
H      -1.977339   -2.153679   -0.306672
H      -0.531114   -0.003847   -2.034552
