18

C       0.026977    1.514960   -0.290035
C       0.115780    0.006847   -0.136881
C       1.461904   -0.653582   -0.049027
C       0.595804   -0.626744    1.188782
C       0.985050    0.218184    2.340971
O       0.708285   -0.034264    3.487679
C      -0.940801   -0.852928   -0.805135
N      -1.950497   -0.184669   -1.432580
O      -0.880262   -2.069543   -0.796021
H       0.894950    2.015065    0.144065
H      -0.002692    1.791733   -1.349551
H      -0.861294    1.928805    0.201604
H       1.574045   -1.616330   -0.531360
H       2.331652   -0.004266   -0.066127
H       0.095671   -1.551234    1.451657
H       1.588456    1.120308    2.087388
H      -2.089321    0.805139   -1.340956
H      -2.697724   -0.740684   -1.815504
