19

C       0.167015    1.357720    0.212952
N       0.250533   -0.073649    0.012069
C       0.506384   -0.628524   -1.203849
O       0.671815   -0.004375   -2.239119
C       0.558164   -2.125332   -1.177273
C      -0.581523   -2.970066   -0.747629
N       0.604344   -2.926069    0.120535
C       1.624840   -3.822039   -0.541453
C       1.637746   -2.973258   -1.842262
H       1.011037    1.734246    0.802941
H       0.190349    1.827741   -0.771428
H      -0.763374    1.631675    0.721935
H       0.289475   -0.697706    0.805220
H      -1.444155   -2.469261   -0.320028
H      -0.805334   -3.884055   -1.295368
H       2.561418   -3.791632    0.017381
H       1.290735   -4.861038   -0.624553
H       1.361361   -3.462218   -2.779342
H       2.571244   -2.429489   -1.990846
