17

C      -0.087861    1.432684    0.396017
C      -0.054261   -0.031729   -0.002052
O      -1.377968   -0.539197    0.052016
C      -1.455355   -1.898058   -0.295703
C      -2.869189   -2.356709   -0.148144
N      -3.596426   -2.988919   -1.021194
C      -4.765314   -3.174897   -0.324229
N      -4.773485   -2.694505    0.888069
O      -3.493282   -2.144211    1.015185
H       0.920601    1.855514    0.367342
H      -0.723457    2.001626   -0.287962
H      -0.484824    1.545372    1.408495
H       0.353514   -0.151359   -1.019410
H       0.595400   -0.607733    0.677886
H      -1.152935   -2.082557   -1.336408
H      -0.806792   -2.509999    0.355275
H      -5.629822   -3.676207   -0.734217
