25

C      -0.145462    1.541742   -0.066582
C       0.124225    0.032013   -0.078907
C       0.743212   -0.525891    1.210453
C       2.130171    0.066090    1.476501
C      -0.146553   -0.492033    2.510559
C       0.005005   -2.016085    2.649687
C       0.229936   -2.734942    3.949148
C      -0.581936   -2.674681    1.432841
C       0.791720   -2.064118    1.335929
H       0.777582    2.124255    0.010735
H      -0.652245    1.852712   -0.985579
H      -0.786781    1.824115    0.775672
H      -0.818193   -0.490341   -0.279015
H       0.788149   -0.213718   -0.919290
H       2.085194    1.146996    1.643151
H       2.583557   -0.387819    2.363965
H       2.803087   -0.116662    0.629839
H       0.322877    0.070832    3.322138
H      -1.174842   -0.132148    2.391033
H      -0.675153   -2.729378    4.569644
H       0.505439   -3.781505    3.780404
H       1.031579   -2.268110    4.533528
H      -0.593641   -3.760689    1.455521
H      -1.434261   -2.239950    0.915508
H       1.659372   -2.666925    1.085103
