19

O      -0.462341    0.440583    0.345275
C       0.065302    1.518995    0.253591
C       1.459163    1.761245   -0.286640
C       1.454468    2.818174   -1.378240
C       1.449898    4.292757   -1.038727
C       2.666927    3.676434   -1.676335
C       3.944258    3.537994   -0.906772
C       4.575497    4.683362   -0.234608
O       3.882666    3.682118    0.515371
H      -0.465974    2.446214    0.571971
H       2.083068    2.100904    0.549327
H       1.858702    0.807116   -0.644491
H       0.871545    2.539437   -2.252564
H       0.834607    4.964562   -1.626056
H       1.541993    4.556274    0.009727
H       2.834620    3.892417   -2.728760
H       4.599057    2.727725   -1.232438
H       5.654485    4.704486   -0.092335
H       4.084905    5.654276   -0.273350
