19

C       0.238086    1.555108   -0.097743
C       0.051070    0.052667    0.041796
O       0.617062   -0.584587   -1.114064
C       1.168897   -1.828942   -0.751185
C       0.627032   -3.092454   -1.374152
C       1.982457   -2.538941   -1.780522
C       1.475302   -1.759213    0.709586
O       2.192346   -0.570908    1.082566
C       0.767660   -0.586167    1.220893
H       1.303794    1.796003   -0.093648
H      -0.199103    1.904959   -1.036497
H      -0.251102    2.081559    0.728014
H      -1.020841   -0.195630    0.120725
H       0.590164   -4.000969   -0.781123
H      -0.189638   -2.970063   -2.076333
H       2.054516   -2.060134   -2.750393
H       2.878310   -3.061008   -1.462874
H       1.684239   -2.654493    1.287635
H       0.373409   -0.498246    2.229775
