25

C      -0.268913    1.553305   -0.112301
C      -0.040665    0.035428    0.006253
C       0.784265   -0.488558   -1.146344
C       1.994891   -0.889621   -0.767210
C       2.225670   -0.715382    0.716008
C       3.269513    0.381058    0.995849
C       0.768297   -0.467813    1.261130
C       0.702283    0.474732    2.468979
C       0.185402   -1.832889    1.678350
H       0.675801    2.105655   -0.122905
H      -0.791753    1.782885   -1.047166
H      -0.880432    1.936101    0.710458
H      -1.034272   -0.434721    0.015045
H       0.414190   -0.487381   -2.166981
H       2.767532   -1.267004   -1.429980
H       2.614868   -1.643645    1.157852
H       2.958408    1.349460    0.591994
H       3.453939    0.500138    2.067869
H       4.223148    0.121507    0.523350
H       1.099169    1.469503    2.254059
H      -0.332361    0.597006    2.808808
H       1.271679    0.065576    3.311181
H       0.754393   -2.266126    2.508534
H      -0.855950   -1.732642    2.004214
H       0.211536   -2.541974    0.844809
