23

C      -0.157077    1.496443    0.021963
C      -0.015055   -0.029689    0.011697
C       0.687750   -0.499269    1.293250
O      -1.360422   -0.524997   -0.014350
C       0.760603   -0.492357   -1.247261
C       0.866854   -2.032889   -1.441162
C       0.446432   -2.254186   -2.912743
O       0.546941   -0.990311   -3.546202
C       0.130305   -0.037353   -2.581225
H       0.823951    1.979277   -0.013421
H      -0.744750    1.837787   -0.833886
H      -0.671688    1.818670    0.931388
H       0.116582   -0.180825    2.170249
H       0.777888   -1.590852    1.322848
H       1.697445   -0.082897    1.367731
H      -1.336824   -1.468372    0.175530
H       1.772244   -0.077638   -1.181000
H       1.885040   -2.382823   -1.257399
H       0.211892   -2.589717   -0.763470
H       1.087789   -2.954957   -3.453763
H      -0.589424   -2.627170   -2.962869
H      -0.966736   -0.026257   -2.487776
H       0.469168    0.944520   -2.919076
