17

C      -0.047399    1.575834    0.111084
C       0.014419    0.062861   -0.010467
O      -1.262255   -0.528103   -0.141624
C       1.074084   -0.542233   -1.016581
C       1.720354   -1.264987    0.162801
O       2.087733   -0.276890    1.147524
C       0.738589   -0.691923    1.127841
C       2.390092   -2.575510    0.233148
O       2.498753   -3.323323   -0.707399
H       0.942839    1.982023    0.331177
H      -0.396433    2.023005   -0.827656
H      -0.738953    1.866212    0.907782
H      -1.691030   -0.149706   -0.916821
H       0.596845   -1.236537   -1.709567
H       1.724991    0.152889   -1.550953
H       0.306400   -1.112321    2.029761
H       2.779250   -2.821047    1.244999
