21

C      -0.917467    0.671676    0.056590
C       0.600924    0.515927    0.168402
N       1.008634   -0.261817    1.329241
C       1.430772   -1.551381    1.239343
O       1.551286   -2.139151    0.171676
C       1.765364   -2.242658    2.545911
C       1.943213   -1.426078    3.807978
C       1.260391   -3.648998    2.624331
N       2.679832   -3.387699    2.392491
H      -1.333698    1.173163    0.937175
H      -1.174991    1.270536   -0.822700
H      -1.398887   -0.305616   -0.039434
H       0.997024   -0.008776   -0.702985
H       1.081577    1.500185    0.216800
H       0.890627    0.145506    2.241628
H       1.004867   -0.958717    4.131051
H       2.282956   -2.077139    4.616321
H       2.696516   -0.641633    3.676079
H       1.014467   -4.061512    3.599592
H       0.661143   -4.008726    1.793493
H       2.854386   -3.487558    1.391604
