22

C       0.568247    1.530286   -0.245637
C       0.320419    0.070175    0.049455
N       1.494185   -0.805159    0.242897
C       0.557200   -0.605359    1.357399
C       1.082108    0.018939    2.630029
C       2.215245   -0.751610    3.349445
C       3.036834    0.541537    3.150710
C       4.280924    0.467127    2.289096
O       1.927305    1.174386    2.459780
H       1.399653    1.907995    0.346795
H       0.792326    1.664129   -1.309881
H      -0.324168    2.123061   -0.015417
H      -0.498077   -0.361390   -0.528549
H       1.346687   -1.710521   -0.193723
H      -0.124783   -1.427282    1.586044
H       0.226600    0.260194    3.277729
H       2.016170   -1.039406    4.382609
H       2.593085   -1.610582    2.791413
H       3.246341    1.075627    4.087505
H       4.055408   -0.048981    1.351911
H       4.643741    1.473220    2.054643
H       5.078893   -0.068118    2.816621
