19

C      -0.008680    1.384117    0.038296
N       0.068732   -0.060261    0.095062
C       0.523974   -0.657109   -0.911562
O       0.622596   -2.004954   -0.925184
C       1.155524   -2.578807   -2.113390
C       1.170109   -4.088890   -1.921127
C       1.735108   -4.804630   -3.162412
C       1.760726   -6.256764   -3.004819
N       1.776567   -7.404004   -2.869807
H       0.577502    1.815242    0.857665
H       0.351308    1.816665   -0.909802
H      -1.046467    1.701970    0.189351
H       0.869503   -0.165118   -1.835187
H       0.535935   -2.304981   -2.979997
H       2.172786   -2.202041   -2.295352
H       1.772426   -4.334445   -1.041719
H       0.152676   -4.436521   -1.720050
H       1.136530   -4.564885   -4.049459
H       2.755937   -4.462687   -3.371232
