11

O      -0.052155   -0.016380    0.003475
N      -0.014461    1.195105    0.006856
O       0.985032    1.900695    0.002222
C      -1.321792    1.932544    0.017407
C      -1.333001    3.323681    0.020692
N      -2.498053    3.971912    0.030006
N      -3.623752    3.265933    0.036004
C      -3.538437    1.935143    0.032419
N      -2.411867    1.212303    0.023108
H      -0.426607    3.913699    0.015949
H      -4.479464    1.395133    0.037520
