22

C      -0.107867    1.571141    0.058578
C      -0.022405    0.042487    0.021783
C       0.811684   -0.537369    1.160092
C       0.957680   -2.093606    1.185538
C       2.491176   -2.146567    1.221885
O       3.012135   -3.433885    1.285309
C       2.813221   -0.986750    2.210475
N       2.253670   -0.086672    1.129613
C       2.848143   -1.079117    0.150066
H       0.890698    2.012978    0.013239
H      -0.697604    1.954569   -0.779714
H      -0.580781    1.916324    0.984926
H      -1.027719   -0.393599    0.086450
H       0.381749   -0.284329   -0.944333
H       0.395222   -0.173726    2.106199
H       0.508705   -2.562814    2.064946
H       0.556763   -2.582918    0.292507
H       3.973176   -3.374203    1.292080
H       2.295261   -0.938833    3.172968
H       3.883280   -0.801311    2.342576
H       3.921512   -0.896543    0.045878
H       2.378241   -1.125547   -0.835006
