18

O       0.102880    1.411039    0.242645
C      -0.009569    0.027814    0.132139
C      -0.579534   -0.833664    1.232220
C      -1.327114   -0.675948   -0.083843
C      -2.642315    0.064498   -0.154770
C      -3.887219   -0.750339    0.300090
N      -4.501260    0.038364    1.383018
C      -3.755415    1.043817    1.547120
O      -2.652772    1.204176    0.765191
H      -0.714320    1.747665    0.630051
H       0.846112   -0.361944   -0.410214
H      -0.117974   -1.787367    1.464121
H      -0.985307   -0.310167    2.091731
H      -1.313705   -1.527548   -0.760553
H      -2.779925    0.485199   -1.156691
H      -4.609700   -0.895796   -0.508273
H      -3.608727   -1.738699    0.681075
H      -3.902776    1.833366    2.275513
