21

C       0.018550    1.562871    0.019843
C       0.098291    0.051649    0.085241
C       1.322491   -0.783986   -0.196174
C       2.601525   -0.102377    0.339143
C       1.947974   -0.092704    1.771678
C       0.689656   -0.769150    1.203920
C      -0.076817   -1.835968    1.933361
C       3.803980   -0.905813    0.232688
C       4.794703   -1.582125    0.143342
H       0.903595    2.053277    0.433484
H      -0.090605    1.902473   -1.016086
H      -0.847965    1.929082    0.581405
H      -0.792897   -0.429393   -0.317089
H       1.329979   -1.572451   -0.939833
H       2.792690    0.891072   -0.082892
H       2.495237   -0.744700    2.454659
H       1.822981    0.887055    2.243782
H      -0.637219   -1.416821    2.778522
H      -0.798806   -2.326755    1.272183
H       0.592352   -2.607692    2.331044
H       5.673566   -2.172000    0.061899
