18

C      -0.054521    1.484863    0.043119
C      -0.003935   -0.012016   -0.027183
C      -0.052012   -0.710503   -1.166263
C       0.047332   -2.217895   -1.089436
N       1.128329   -2.552961   -0.079809
C       0.120023   -2.283620    1.018377
C       0.108441   -0.772374    1.283277
C      -0.955139   -2.689554   -0.014349
O      -1.962451   -3.332504    0.010690
H       0.848777    1.885930    0.520882
H      -0.142368    1.933167   -0.949861
H      -0.903821    1.824998    0.649602
H      -0.168775   -0.231988   -2.132985
H       0.104439   -2.723000   -2.053676
H       1.281126   -3.561120   -0.115163
H       0.222224   -2.880495    1.927302
H       1.019177   -0.476724    1.821835
H      -0.736656   -0.520109    1.938808
