18

O      -0.045307    0.009804    0.129274
C      -0.048620    1.209044    0.004218
C      -1.276622    2.068699   -0.183524
N      -1.315428    3.174807    0.818973
C      -0.832738    3.447633   -0.540813
C       0.692178    3.500945   -0.626377
C       1.431487    4.207346    0.548816
C       1.703285    2.822537    1.203621
C       1.174616    2.119242   -0.094893
H      -2.202859    1.614143   -0.515169
H      -2.281317    3.481810    0.908325
H      -1.434442    4.074944   -1.190745
H       1.005814    3.777355   -1.635654
H       2.344105    4.712736    0.224108
H       0.829155    4.903303    1.135268
H       2.744560    2.601481    1.445433
H       1.084060    2.628094    2.079325
H       1.958158    1.620056   -0.666776
