16

N      -0.133174    1.256494   -0.532672
C      -0.072054    0.013457   -0.252079
N      -1.174521   -0.671309    0.182088
C      -1.389699   -2.078628    0.558648
C      -2.872063   -1.693400    0.762570
C      -4.107740   -2.443382    0.546363
O      -3.656080   -2.082357    1.860659
C      -2.514871   -0.269084    0.392927
N      -3.156558    0.807527    0.297538
H       0.775062    1.598775   -0.837431
H       0.820839   -0.619938   -0.319634
H      -1.184118   -2.795614   -0.242152
H      -0.879480   -2.378922    1.479015
H      -4.990277   -1.911840    0.196936
H      -4.058407   -3.505357    0.311026
H      -2.538129    1.565132    0.001497
