19

C       0.015658    1.558023   -0.055284
C       0.012471    0.049075   -0.024585
C       0.564860   -0.955755   -1.047601
N       0.007327   -1.900653    0.017009
C       0.587069   -0.915093    1.057854
C      -0.322233   -0.975976    2.277789
C      -1.694428   -0.987915    1.548575
C      -1.192980   -0.930576    0.111898
H       1.038057    1.949585   -0.099468
H      -0.525105    1.935988   -0.930092
H      -0.462815    1.974533    0.838344
H       0.060178   -1.040616   -2.015619
H       1.650599   -1.026780   -1.170441
H       1.667714   -0.989200    1.202205
H      -0.147764   -1.881047    2.866000
H      -0.188142   -0.113200    2.937249
H      -2.267228   -1.899491    1.739665
H      -2.327677   -0.131819    1.800260
H      -1.916196   -1.020373   -0.702360
