16

O      -0.258731    1.458040    0.202383
C      -0.058347    0.087545    0.097123
C      -0.409079   -0.755370    1.321937
N      -0.648167   -0.124990    2.562028
C      -1.727187    0.459210    2.864994
N      -2.914378    0.627220    2.147106
C      -3.195051    0.440084    0.801485
N      -2.549233   -0.159108   -0.113251
C      -1.302083   -0.798973    0.090931
H      -0.982196    1.691712   -0.392181
H       0.805590   -0.195806   -0.502812
H       0.218641   -1.636703    1.432166
H      -1.803160    0.920010    3.850755
H      -3.615367    1.161010    2.640201
H      -4.148745    0.896911    0.531523
H      -1.213222   -1.707418   -0.499628
