17

C       0.171660    1.533554    0.051020
C       0.068170    0.022896   -0.017883
C       0.783535   -0.640134   -1.246622
C       1.439463   -1.806308   -0.574187
N       2.116751   -2.893930   -0.909999
N       2.439758   -3.430943    0.288485
C       1.980991   -2.717963    1.373811
C       1.329265   -1.649566    0.810555
O       0.660679   -0.537495    1.204767
H       1.220142    1.846827    0.055239
H      -0.322888    1.985930   -0.814546
H      -0.306908    1.912529    0.958091
H      -0.985307   -0.285037   -0.010640
H       0.062896   -0.908180   -2.023689
H       1.515366    0.043732   -1.694647
H       2.943460   -4.300106    0.307519
H       2.164347   -3.036024    2.385747
