21

C       0.055628    1.467524    0.019759
C       0.018404    0.011728    0.015231
C      -0.015762   -1.193472    0.013481
C      -0.008434   -2.634643   -0.012408
C       1.161249   -3.244209   -0.774418
C      -0.513398   -3.368911    1.237851
C      -1.347955   -3.366075   -0.015486
C      -2.651516   -2.604728   -0.069436
O      -1.348371   -4.540168   -0.788493
H       0.958572    1.841409   -0.475942
H      -0.807374    1.893341   -0.504719
H       0.052146    1.866421    1.040564
H       2.107266   -2.964370   -0.300746
H       1.081228   -4.331422   -0.800212
H       1.179046   -2.879659   -1.805936
H       0.000736   -4.290482    1.490329
H      -0.833745   -2.769011    2.082267
H      -2.584004   -1.661181    0.475362
H      -2.919799   -2.387148   -1.107942
H      -3.459466   -3.200386    0.373442
H      -1.922291   -5.177795   -0.349558
