18

C      -0.064220    1.462731    0.048588
C       0.031953   -0.032386    0.004269
C       0.890099   -0.890057   -0.927245
C       0.034275   -2.090177   -0.440267
C       0.426255   -2.244635    1.059342
C      -0.258015   -0.894667    1.241658
O      -0.571919   -0.256137    2.424657
C      -1.092138   -1.064238   -0.014518
H       0.893438    1.909663    0.341125
H      -0.338464    1.872893   -0.929839
H      -0.811674    1.783527    0.779349
H       0.693909   -0.645411   -1.976050
H       1.973353   -0.938386   -0.758204
H      -0.113786   -2.970190   -1.061516
H      -0.141871   -3.046992    1.542781
H       1.490936   -2.344664    1.302111
H      -1.211515   -0.797966    2.899430
H      -2.150240   -0.978358   -0.216785
