19

C      -0.191027    1.618631   -0.084052
C      -0.056470    0.104772   -0.033391
C       1.187000   -0.575676   -0.649856
C       2.091846   -0.250606    0.589138
C       2.569939   -1.725425    0.702619
C       2.968534   -2.230851    2.054677
O       3.945059   -2.905277    2.273661
C       1.070924   -1.808647    0.306258
C       0.661155   -0.560221    1.163658
H       0.746046    2.119002    0.181241
H      -0.475551    1.954385   -1.087275
H      -0.963212    1.967466    0.610432
H      -1.002956   -0.380978   -0.303841
H       1.520970   -0.606954   -1.688693
H       2.686039    0.648329    0.752257
H       3.288631   -2.058572   -0.052238
H       2.284335   -1.937789    2.884821
H       0.468228   -2.702019    0.136954
H       0.367928   -0.560531    2.214154
