19

C       0.134401    1.431234   -0.275693
C       0.017119   -0.034257    0.159387
O       0.533306   -0.207592    1.476980
C      -1.385080   -0.580115    0.053966
C      -2.081039   -1.146105    1.076376
O      -3.310019   -1.554810    0.665057
C      -3.393544   -1.250531   -0.656152
C      -2.255809   -0.653158   -1.100878
C      -1.987107   -0.202219   -2.504740
H       1.162465    1.774701   -0.131096
H      -0.131309    1.564727   -1.327461
H      -0.535150    2.062352    0.320583
H       0.684103   -0.636520   -0.472012
H       0.055380    0.401234    2.051834
H      -1.832968   -1.350570    2.103537
H      -4.315632   -1.521432   -1.145177
H      -1.942598    0.889604   -2.588738
H      -1.034840   -0.593378   -2.880715
H      -2.774931   -0.549096   -3.179436
