23

C      -0.251471    1.638288    0.060278
C      -0.039375    0.118337    0.027938
C       0.797931   -0.270665   -1.185141
C       0.629981   -1.613014   -1.866582
C       0.174824   -0.349395   -2.553502
C       0.572851   -0.471595    1.299820
O       0.564549   -1.879736    1.308204
C       1.735266    0.182811    2.011707
C       0.366237    0.106106    2.664385
H       0.694869    2.178397    0.171108
H      -0.704915    1.968457   -0.878765
H      -0.914525    1.941921    0.874892
H      -1.023648   -0.359243   -0.081557
H       1.814358    0.116916   -1.153992
H       1.510909   -2.116828   -2.250572
H      -0.137648   -2.280578   -1.489513
H      -0.894531   -0.180200   -2.631489
H       0.743398    0.008451   -3.404517
H       1.106832   -2.170184    0.566499
H       2.505607   -0.479074    2.390657
H       2.089240    1.152512    1.679534
H      -0.200446    1.022122    2.779019
H       0.236227   -0.612966    3.464847
