15

O      -0.153530    1.483955   -0.180963
C      -0.002185    0.110340   -0.062215
C       1.092489   -0.475924   -0.951915
C       2.401888    0.054250   -0.569081
N       3.410438    0.507564   -0.233998
C      -0.334227   -0.538832    1.248078
C      -1.295618   -0.670117    0.063934
C      -2.551885    0.025161    0.083545
N      -3.577576    0.558329    0.094739
H       0.576646    1.916000    0.279371
H       1.112800   -1.568235   -0.883434
H       0.892239   -0.208670   -1.995066
H       0.195405   -1.432910    1.556706
H      -0.646398    0.119696    2.049403
H      -1.334822   -1.635999   -0.429281
