14

C       0.006161    1.483495    0.105004
C       1.311305    0.740435    0.003722
N       2.044861    0.395355    1.217746
C       1.210225   -0.381125    1.995388
N       1.232979   -0.925348    3.172773
O       0.039198   -1.670659    3.199223
N      -0.685931   -1.533925    2.029341
C       0.021786   -0.736176    1.296701
C      -0.009676   -0.039024   -0.003907
H      -0.273460    1.932279    1.051792
H      -0.320950    2.027439   -0.774017
H       1.918167    0.833351   -0.889052
H       2.618441    1.102577    1.653550
H      -0.399549   -0.510255   -0.895918
