15

O      -0.089986    1.503256   -0.063765
C      -0.044295    0.107572   -0.072043
C      -1.362618   -0.620240   -0.157885
C      -1.744870   -0.750432   -1.592505
C      -0.689403   -0.077456   -2.451449
C       0.288530   -0.646280   -1.401534
C       1.641234   -1.009615   -1.726275
N       2.740793   -1.271324   -1.972085
N      -0.769271   -1.732156   -0.997122
H       0.777796    1.844959    0.175736
H       0.566408   -0.302496    0.740396
H      -2.046307   -0.839215    0.652564
H      -2.735973   -1.070692   -1.889052
H      -0.574613   -0.585412   -3.410459
H      -0.706530    1.006837   -2.577390
