19

O       0.141797    1.378208    0.230569
C      -0.009374    0.007748   -0.112351
C      -1.462591   -0.329175   -0.019093
O      -1.897894   -1.523022   -0.679323
C      -2.564465   -0.289960   -1.001291
C      -3.603663   -0.002175    0.107181
C      -4.261153   -1.234667    0.796928
C      -3.098092   -1.273326    1.839441
C      -2.438445   -0.042755    1.150988
H       1.080437    1.557431    0.335912
H       0.337238   -0.208238   -1.134238
H       0.558018   -0.640981    0.574886
H      -2.581051   -0.012328   -2.050163
H      -4.198794    0.898083   -0.045050
H      -5.235932   -1.009617    1.235948
H      -4.352358   -2.121254    0.167032
H      -3.420714   -1.069201    2.863100
H      -2.497983   -2.185317    1.832663
H      -2.178164    0.831012    1.746116
