13

N       0.001889    1.348855    0.108641
C       0.052202   -0.033581    0.026540
N      -1.014200   -0.798099    0.064569
O      -0.563892   -2.106905    0.038314
C       0.798284   -2.092680   -0.021061
C       1.502548   -3.311556   -0.045585
N       2.134232   -4.283749   -0.062968
C       1.257882   -0.804885   -0.030264
N       2.535987   -0.285946   -0.135441
H       0.588004    1.808357   -0.578086
H      -0.946174    1.702153    0.067758
H       3.273431   -0.969312   -0.023174
H       2.691988    0.517205    0.461473
