18

C       0.040006    1.439554   -0.152177
C       0.086516   -0.069271   -0.047286
O       1.117455   -0.691889    0.060956
C      -1.236660   -0.815739   -0.092425
C      -2.232724   -0.495313    0.954986
O      -2.397410   -0.024400   -0.379794
C      -1.190961   -2.174748   -0.730478
C      -2.439567   -2.869132   -1.116477
N      -1.552563   -2.310982   -2.154229
H       1.037400    1.842097    0.026246
H      -0.299506    1.721799   -1.155003
H      -0.677871    1.876452    0.547636
H      -2.918778   -1.279805    1.266616
H      -2.022625    0.272067    1.698370
H      -0.317072   -2.749199   -0.441705
H      -2.483406   -3.953675   -1.080909
H      -3.381929   -2.361526   -0.931243
H      -1.956908   -1.432366   -2.474655
