14

C       0.024201    1.439759    0.057602
C      -0.010856   -0.044052   -0.052100
N      -0.078791   -0.735000   -1.122821
C      -0.033612   -2.120198   -0.720020
C       1.230236   -2.564964   -0.008206
C       0.052935   -2.095836    0.795551
O       0.032490   -0.720403    1.139010
H       0.983034    1.772380    0.468302
H      -0.116666    1.880398   -0.928856
H      -0.759903    1.788898    0.736435
H      -0.611175   -2.823022   -1.307800
H       1.426860   -3.631264    0.017380
H       2.108507   -1.931460   -0.076420
H      -0.472742   -2.720085    1.506068
