21

O       0.033159    1.414878    0.322720
C       0.042867    0.016586    0.002937
C       0.761343   -0.864166    1.034231
C      -0.300904   -1.258678    2.081075
C      -0.668009   -0.192044    3.157723
C      -2.041960    0.046788    2.464688
C      -1.697477   -1.034241    1.402217
C      -1.409690   -0.531870   -0.033176
O      -2.323820    0.417524   -0.529365
H      -0.058113    1.516713    1.275105
H       0.508882   -0.031061   -0.984803
H       1.133388   -1.762084    0.527710
H       1.632393   -0.357596    1.463911
H      -0.107845   -2.249839    2.495421
H      -0.748905   -0.596585    4.169394
H       0.008992    0.668793    3.217449
H      -2.902465   -0.198900    3.090211
H      -2.214428    1.045013    2.054892
H      -2.381695   -1.884077    1.394722
H      -1.431666   -1.396862   -0.709577
H      -1.901401    1.275939   -0.381608
