14

C      -0.064224    1.501709   -0.204944
C       1.433000    1.567513    0.237978
C       1.411502    0.044459    0.493102
O       1.009263   -0.293720    1.837418
C      -0.362914   -0.499937    1.426443
C      -0.060138   -0.040667   -0.007938
H      -0.775167    2.042413    0.426151
H      -0.225857    1.809876   -1.240210
H       2.108626    1.863829   -0.569451
H       1.659675    2.160751    1.126490
H       2.248811   -0.567371    0.145581
H      -0.649396   -1.555964    1.519124
H      -1.069741    0.112322    2.001844
H      -0.406259   -0.666036   -0.829772
