16

O      -0.151956    1.416366   -0.033321
C      -0.035338    0.046065   -0.008722
C      -0.224440   -0.854313   -1.195577
C      -1.158194   -0.959876    0.001350
C      -0.489551   -1.681906    1.202084
N       0.866173   -2.122757    0.823800
C       0.630263   -0.696695    1.216540
C       1.302349   -0.069935    2.292609
C       1.888387    0.479983    3.189717
H       0.656996    1.782807   -0.409728
H      -0.679428   -0.342601   -2.038396
H       0.468950   -1.648715   -1.439379
H      -2.223042   -0.788186   -0.071712
H      -1.012245   -2.117095    2.043761
H       1.279852   -2.581926    1.635754
H       2.391166    0.965614    3.988898
