15

C       0.002620    1.511349    0.121499
O       1.282084    2.021465   -0.356457
C       2.261282    1.199054   -0.779227
N       2.266819   -0.076744   -0.841153
C       1.080975   -0.640011   -0.402174
C      -0.030853    0.018882    0.064920
C      -0.999292   -0.963033    0.399040
C      -0.436012   -2.193002    0.120560
N       0.831798   -1.984101   -0.367219
H      -0.121777    1.906602    1.138789
H      -0.766418    1.983367   -0.504894
H       3.125363    1.778784   -1.091122
H      -1.990664   -0.802627    0.795543
H      -0.832451   -3.188959    0.229587
H       1.486890   -2.689989   -0.657198
