21

C       0.090073    1.306315   -0.078905
O      -0.058735   -0.090600    0.052990
C      -1.388871   -0.612643    0.138292
C      -2.153781   -0.055162    1.345750
C      -2.166547   -0.394593   -1.166069
C      -1.092607   -2.109375    0.346684
O      -2.304313   -2.857508    0.474153
C      -2.513441   -3.892372   -0.362146
O      -3.495143   -4.569652   -0.318194
H       1.164821    1.495538   -0.137440
H      -0.379062    1.697425   -0.992021
H      -0.311422    1.856448    0.782655
H      -2.442972    0.988435    1.195276
H      -3.065061   -0.636206    1.507338
H      -1.537688   -0.119138    2.247980
H      -1.583717   -0.746835   -2.023042
H      -3.114829   -0.937631   -1.138728
H      -2.399841    0.662255   -1.320216
H      -0.495316   -2.480212   -0.494353
H      -0.515217   -2.239766    1.266213
H      -1.681755   -4.036434   -1.079286
