17

C      -0.136197    1.447840   -0.000615
C       0.084573   -0.034343    0.017688
C       1.434834   -0.686260   -0.184076
C       0.702706   -0.815975    1.141954
O       1.169338   -0.133948    2.262171
C      -0.173814   -2.035882    1.328176
C      -1.196076   -1.945898    0.191661
O      -2.044674   -2.733298   -0.102529
O      -1.012466   -0.780667   -0.499989
H       0.676477    1.947713    0.530847
H      -0.174156    1.827373   -1.026010
H      -1.078330    1.699000    0.495580
H       1.505792   -1.544765   -0.844775
H       2.292327   -0.021770   -0.189090
H       1.984008   -0.555658    2.556465
H       0.341038   -2.999444    1.280525
H      -0.701660   -1.983853    2.285932
