19

C       0.165842    1.173972   -0.897268
C       0.574126   -0.273949   -0.657651
C       1.890332   -0.864527   -1.282178
C       2.269658   -1.390742    0.114922
O       2.749445   -2.660555    0.360908
C       2.457128   -0.270466    1.127247
C       3.102380    1.034953    0.861575
O       3.755296    1.632274    1.686525
C       1.049115   -0.751882    0.722453
H       0.952261    1.885687   -0.632954
H      -0.086298    1.333202   -1.951391
H      -0.719081    1.427829   -0.303610
H      -0.257846   -0.920336   -0.957094
H       1.691099   -1.684047   -1.975417
H       2.582188   -0.163497   -1.756899
H       3.708765   -2.652095    0.266446
H       2.718765   -0.656202    2.109527
H       2.992940    1.440699   -0.165662
H       0.407495   -1.121898    1.513633
