20

C      -0.013157    1.514320    0.014088
C       0.003146    0.005641   -0.054195
C       0.801648   -0.709496   -1.159814
C       0.634513   -2.110204   -0.544632
C       1.330777   -1.924579    0.817573
C       0.359806   -0.828282    1.279588
C      -0.999559   -1.526077    1.133498
C      -1.324638   -0.777574   -0.098473
N      -0.845040   -2.178680   -0.194049
H       0.994194    1.916008    0.169512
H      -0.403482    1.947383   -0.914489
H      -0.644520    1.870036    0.835684
H       0.325231   -0.603391   -2.139864
H       1.850331   -0.403876   -1.237309
H       0.923791   -2.969000   -1.148677
H       1.287706   -2.812975    1.455171
H       2.372639   -1.605697    0.716916
H       0.579955   -0.260875    2.182222
H      -1.623847   -1.990552    1.888952
H      -2.268252   -0.496675   -0.555725
