13

C      -0.002644    1.476343   -0.015918
C      -0.043214   -0.017258    0.003344
N      -1.167910   -0.631299   -0.159331
C      -1.189348   -2.007521   -0.139226
N      -2.228682   -2.703191   -0.287392
O       0.068167   -2.667008    0.065535
C       1.153118   -1.911722    0.219849
N       1.199291   -0.634300    0.205214
H       0.677098    1.815137   -0.805202
H      -0.999188    1.885506   -0.176070
H       0.410614    1.844776    0.929207
H      -2.009889   -3.697118   -0.236802
H       2.047700   -2.513114    0.367935
