16

N       0.141414   -1.157182    0.115425
C       0.060441   -0.002550    0.059450
C      -0.051623    1.404895   -0.022039
C      -0.045932    2.485031    1.056423
C       1.005958    2.505368   -0.039212
C       0.273622    3.341799   -1.116193
C      -0.472180    4.475109   -0.368625
C      -1.167403    3.313781    0.384639
C      -0.944312    2.374851   -0.861172
H       0.188073    2.361011    2.104618
H       2.064965    2.397282    0.149658
H       0.749762    3.474420   -2.085586
H       0.113187    5.198170    0.206921
H      -1.169742    5.000147   -1.028556
H      -2.118853    3.418628    0.902106
H      -1.700507    2.106192   -1.592253
