13

C       0.068926    1.457273    0.042713
N       0.011027   -0.007538    0.007162
C      -0.078262   -0.649141   -1.212987
O      -0.114914   -0.101664   -2.276946
O      -0.126932   -2.018304   -1.156750
N      -0.090297   -2.744174    0.099996
N      -0.009792   -2.115931    1.143235
C       0.052019   -0.691594    1.209511
N       0.138600   -0.084935    2.319814
H       0.996988    1.774056    0.523340
H       0.021558    1.815009   -0.982393
H      -0.769059    1.840701    0.628641
H       0.152961   -0.764024    3.079067
