21

C       0.041563    1.681151   -0.193317
C       0.112656    0.166427   -0.052567
C       0.496475   -0.730890   -1.254932
C       1.754847   -0.320386   -2.079860
C       2.607311   -1.364775   -1.301648
C       1.422412   -1.602500   -0.336334
C       1.208590   -0.538692    0.823737
C       2.465477    0.177867    1.223604
O       2.917624    1.170599    0.703721
H       0.981347    2.110646   -0.540509
H      -0.753218    1.953341   -0.897462
H      -0.194963    2.150206    0.768182
H      -0.853591   -0.188370    0.325091
H      -0.324918   -1.158452   -1.832578
H       1.674667   -0.497088   -3.154510
H       2.072668    0.712017   -1.924159
H       2.808340   -2.260410   -1.896042
H       3.552982   -1.017884   -0.878637
H       1.195989   -2.628403   -0.044421
H       0.801430   -1.009493    1.724079
H       3.019982   -0.314974    2.057287
