17

O      -0.223785    1.377499    0.000817
C       0.040779    0.004285   -0.078611
C       0.886786   -0.325982   -1.326409
C       0.168971    0.038896   -2.606128
C       0.465790   -0.680343   -3.866902
N      -0.831127   -0.873247   -3.188676
C       0.738443   -0.473161    1.177549
O       1.013851    0.280855    2.079210
H       0.116456    1.661019    0.864177
H      -0.905220   -0.565172   -0.147187
H       1.829467    0.230926   -1.254782
H       1.134486   -1.396736   -1.333107
H      -0.122813    1.084210   -2.662996
H       0.411924   -0.161780   -4.819745
H       1.196154   -1.485554   -3.832982
H      -0.821125   -1.760697   -2.689393
H       0.986206   -1.553887    1.223976
