11

O       0.145691   -0.012183   -0.506542
C       0.015348    1.116521   -0.135278
C       1.164153    1.942886    0.263771
N       2.070064    2.603224    0.546261
C      -1.352826    1.859160   -0.074675
C      -2.453338    1.021854   -0.528793
C      -3.358412    0.336585   -0.913049
C      -1.565998    2.381659    1.283947
N      -1.717586    2.785339    2.354851
H      -1.241022    2.730274   -0.740030
H      -4.161219   -0.273463   -1.249797
