18

O      -0.052211    1.481421    0.049161
C      -0.004212    0.082040   -0.034504
C      -1.366725   -0.643247   -0.073290
C      -2.397080    0.156727   -0.876482
C      -1.921745    0.332285   -2.342532
C      -0.406705    0.252937   -2.469729
O       0.245603    0.847714   -3.293363
C       0.228064   -0.630850   -1.404609
N      -0.767815   -1.683075   -0.991287
H       0.824000    1.837580   -0.132844
H       0.652276   -0.356860    0.731058
H      -1.775430   -1.019925    0.866927
H      -3.360216   -0.360821   -0.855721
H      -2.531493    1.131736   -0.399908
H      -2.309119   -0.498101   -2.944827
H      -2.273906    1.259823   -2.797844
H       1.226528   -0.962229   -1.693454
H      -0.273712   -2.367800   -0.421603
