20

C      -0.084230    1.479709   -0.096663
C       1.461680    1.488887    0.022184
N       1.528106   -0.008439    0.185166
C       0.014894   -0.040644   -0.030466
C       0.938720   -0.603012   -1.033991
C       1.186485   -0.089844   -2.453649
C       1.139911   -1.387839   -3.274865
O       1.644846   -2.390938   -2.407311
C       1.087344   -2.128879   -1.128955
H      -0.572510    1.910691    0.779130
H      -0.539704    1.907096   -0.995259
H       2.029970    1.869976   -0.831968
H       1.831035    1.970632    0.929175
H      -0.628339   -0.681515    0.567788
H       0.457239    0.650418   -2.791569
H       2.184445    0.355908   -2.521864
H       0.104719   -1.618245   -3.578994
H       1.765802   -1.367357   -4.170209
H       1.759677   -2.521205   -0.362916
H       0.104991   -2.620113   -1.029762
