18

O       0.097317    1.422811   -0.204933
C       0.032787    0.004973   -0.211786
C      -1.363418   -0.518186    0.146805
C      -1.438237   -2.023156    0.116281
C      -1.613163   -2.800431   -1.178788
C      -2.672059   -2.883575   -0.118236
O      -2.560802   -3.966615    0.796216
C      -1.372984   -3.768656    1.425228
N      -0.690882   -2.733874    1.142467
H      -0.001291    1.715836    0.706412
H       0.291672   -0.300987   -1.230981
H       0.777350   -0.441299    0.461710
H      -1.635989   -0.165622    1.150596
H      -2.092060   -0.093572   -0.552766
H      -1.876473   -2.223646   -2.059300
H      -0.980360   -3.662782   -1.360168
H      -3.693217   -2.556065   -0.264144
H      -1.105322   -4.535466    2.141777
