17

C       0.016453    1.529328    0.307037
C       0.046129    0.043120    0.007490
O       0.636486   -0.616682    1.144264
C       0.745994   -1.963834    1.029877
O       0.391543   -2.610290    0.084761
N       1.357278   -2.428803    2.187964
C       1.510780   -3.776287    2.557256
N       2.258723   -3.896315    3.720084
O       1.016928   -4.709669    1.979137
H       1.026500    1.916662    0.468408
H      -0.427714    2.066917   -0.535748
H      -0.579604    1.736751    1.200231
H      -0.957143   -0.362114   -0.155550
H       0.640421   -0.183966   -0.882961
H       1.583034   -1.717494    2.865665
H       3.000846   -3.232913    3.884806
H       2.504717   -4.853465    3.923342
