15

O       0.075065    1.339642   -0.141162
C      -0.024166   -0.031886   -0.032694
C      -0.446693   -0.639446    1.265432
O      -0.807450    0.324474    2.225834
C      -2.197478    0.393560    2.393317
O      -2.857569    0.824674    1.210043
C      -2.637052    0.081544    0.077365
O      -3.403465    0.150275   -0.838862
C      -1.392728   -0.740350    0.079360
H      -0.152392    1.708019    0.724355
H       0.711753   -0.552598   -0.636399
H       0.029902   -1.523999    1.678495
H      -2.598073   -0.581842    2.701078
H      -2.399688    1.150393    3.151444
H      -1.485448   -1.681258   -0.448301
