15

N       0.182122    1.397000    0.190074
C      -0.033270    0.021516    0.062527
C      -1.159004   -0.764053    0.214091
C      -0.696479   -2.089176    0.026048
C      -1.494527   -3.350882    0.104884
O      -2.731484   -3.149366   -0.571757
N       0.605140   -2.133276   -0.229848
N       0.992659   -0.831046   -0.189485
H       0.666847    1.801416   -0.603226
H      -0.687382    1.894232    0.329418
H      -2.168763   -0.435574    0.395166
H      -0.905067   -4.165008   -0.339889
H      -1.673845   -3.611430    1.161235
H      -3.278954   -3.924440   -0.415043
H       1.965555   -0.602262   -0.298090
