17

C       0.500461    1.067331    0.322620
C       0.080378   -0.357522    0.090627
O      -0.329943   -1.101951    0.952865
C       0.152392   -0.861890   -1.366255
O       0.266004   -0.081972   -2.286968
C       0.038843   -2.356007   -1.620995
O      -0.278948   -2.603746   -2.965728
C       1.378793   -3.057322   -1.267876
O       1.890921   -2.728808    0.006177
H       1.577098    1.157187    0.135207
H       0.005974    1.730561   -0.392086
H       0.279533    1.358277    1.349469
H      -0.755243   -2.755549   -0.977616
H      -0.064431   -1.789367   -3.445529
H       1.231166   -4.138512   -1.398424
H       2.125754   -2.733888   -2.000114
H       1.196800   -2.868471    0.660867
