18

C      -0.028374    1.510037    0.156852
C       0.037850   -0.012704    0.006097
C       0.695558   -0.465003   -1.309174
C       2.168687   -0.066129   -1.350327
O       2.764993    0.223893   -2.355077
C       0.588181   -1.973876   -1.493984
C       1.432460   -2.731968   -2.422608
O       1.682258   -2.763426   -1.010932
H       0.969050    1.962892    0.138137
H      -0.608208    1.961130   -0.655658
H      -0.500408    1.791600    1.102526
H       0.590413   -0.451629    0.847122
H      -0.973866   -0.431841    0.056033
H       0.202935    0.017704   -2.162978
H       2.677414   -0.075972   -0.361252
H      -0.393744   -2.385170   -1.251710
H       1.056533   -3.662075   -2.845301
H       2.179467   -2.209151   -3.015761
