14

C      -0.062832    1.402924    0.010296
O       0.008788   -0.008462    0.001990
C      -1.242330   -0.612819    0.010752
C      -1.075945   -2.117051    0.000986
O      -0.032422   -2.712102   -0.012297
C      -2.398981   -2.907567    0.009456
O      -3.482994   -2.383653    0.022728
C      -2.239501   -4.371760   -0.000015
N      -2.166564   -5.525383   -0.006970
H       0.963849    1.773108    0.002420
H      -0.590663    1.787497   -0.875372
H      -0.573492    1.777862    0.910050
H      -1.844737   -0.341018    0.897208
H      -1.861657   -0.331479   -0.860945
