19

C      -0.004198    1.576295    0.096507
C       0.077784    0.083643   -0.032768
C      -0.755752   -0.869117    0.776814
C       0.746813   -0.962890    0.869849
C       1.268503   -1.715787   -0.351028
C       0.598934   -0.661098   -1.276722
O       2.692909   -1.653224   -0.468304
C       3.392310   -2.800749   -0.407273
O       4.584702   -2.835412   -0.467025
H       0.935241    2.054777   -0.201409
H      -0.801860    1.984968   -0.535697
H      -0.219146    1.870987    1.128866
H      -1.239157   -0.441254    1.649714
H      -1.330107   -1.660452    0.297881
H       1.287719   -0.843773    1.801010
H       0.940745   -2.757714   -0.457511
H      -0.148641   -1.020425   -1.991553
H       1.372206   -0.104002   -1.809918
H       2.744937   -3.693729   -0.304707
