18

C      -0.015710    1.533015    0.016820
C      -0.016165    0.023537    0.016650
C      -1.316166   -0.718563   -0.268334
C      -1.331405   -1.941073    0.664461
O      -2.180993   -2.795680    0.751768
N      -0.149417   -1.907787    1.377576
C       0.693737   -0.783533    1.097725
C       1.261537   -0.736327   -0.305992
O       1.246080   -1.864650   -1.120164
H       0.965628    1.930658    0.295584
H      -0.261204    1.925902   -0.976299
H      -0.749790    1.932102    0.726334
H      -2.195643   -0.100387   -0.064978
H      -1.388644   -1.071761   -1.301283
H       0.069525   -2.625724    2.049671
H       1.201422   -0.326968    1.940641
H       2.151130   -0.128133   -0.454482
H       1.019917   -2.625463   -0.570955
