23

C      -0.233453    1.541623    0.090810
C      -0.068321    0.057996   -0.198451
O      -1.266047   -0.588147    0.183160
C      -1.351130   -1.988019    0.097356
C      -0.333975   -2.823352   -0.640192
C      -0.407683   -2.867821    0.878134
C      -2.793126   -2.399578    0.012698
C      -3.870308   -1.607782    0.709086
C      -3.782053   -1.602099   -0.798442
H       0.667382    2.088517   -0.203408
H      -1.083664    1.947226   -0.464891
H      -0.410607    1.708156    1.156975
H       0.132434   -0.102299   -1.268123
H       0.792609   -0.339511    0.361636
H      -0.698492   -3.672489   -1.208791
H       0.533759   -2.344419   -1.077455
H       0.400654   -2.391716    1.422921
H      -0.810366   -3.750425    1.363402
H      -2.920418   -3.478258    0.003070
H      -4.680788   -2.152619    1.180746
H      -3.565643   -0.705124    1.224239
H      -3.418044   -0.694575   -1.264928
H      -4.532350   -2.140153   -1.367350
