19

C      -0.054118    1.527387   -0.131991
N      -0.056668    0.112434    0.218271
C      -1.325544   -0.553056    0.056100
C      -1.905851   -0.763243   -1.359884
O      -2.916596   -1.737862   -1.178151
C      -2.403449   -2.727071   -0.297801
C      -1.335126   -2.022687    0.600715
C      -0.025968   -2.658698    0.482917
N       1.008116   -3.162274    0.363041
H       0.941309    1.939661    0.054308
H      -0.323112    1.749116   -1.178392
H      -0.760552    2.062610    0.512730
H       0.677963   -0.384297   -0.274733
H      -2.070867    0.005442    0.634515
H      -2.372933    0.127767   -1.784760
H      -1.116625   -1.113696   -2.048222
H      -3.236247   -3.124310    0.287409
H      -1.945989   -3.551800   -0.859886
H      -1.620654   -2.034545    1.654773
