17

O       0.125423   -0.031698    0.184122
C       0.030696    1.157258    0.000945
C      -1.294482    1.867692   -0.216251
C      -1.240454    2.926014   -1.333257
C      -0.003661    3.779809   -1.245806
C       1.105645    3.394759   -0.614248
C       1.242150    2.071150    0.036270
C       2.210130    1.851007    1.141211
O       2.503853    1.409657   -0.167923
H      -2.067259    1.115198   -0.388336
H      -1.529880    2.375495    0.730378
H      -1.274574    2.435897   -2.316827
H      -2.137458    3.553547   -1.287474
H      -0.029279    4.746284   -1.741871
H       1.988703    4.027118   -0.592571
H       2.792097    2.697886    1.504923
H       1.998564    1.063829    1.863232
