21

C       2.252384    0.902206   -0.373508
C       1.379752   -0.291166   -0.080350
O       1.878261   -1.266839    0.845459
C       0.653611   -0.566848    1.178126
C       0.821030    0.320745    2.404370
O       1.343783   -0.422883    3.494360
C      -0.593387   -1.429287    1.127104
C      -0.712570   -2.425756    2.279135
O      -1.895816   -3.179499    2.046334
H       2.723067    1.302826    0.525782
H       3.048652    0.614124   -1.067876
H       1.666998    1.696459   -0.849330
H       0.942631   -0.740960   -0.975065
H       1.459416    1.184894    2.180483
H      -0.152423    0.705171    2.725103
H       2.114732   -0.887218    3.144791
H      -1.480643   -0.783842    1.124267
H      -0.605308   -1.994211    0.189313
H       0.178980   -3.070644    2.291899
H      -0.749917   -1.902003    3.242963
H      -1.999179   -3.801150    2.772393
