20

C       0.053874    1.581960    0.048230
C      -0.004571    0.050310    0.054051
C      -1.422041   -0.480060   -0.020497
C      -2.283888   -0.417387    1.282205
C      -2.288285   -1.974359    1.288109
N      -1.599032   -1.987355   -0.045203
C      -2.463622   -1.882149   -1.168546
O      -3.214991   -2.680859   -1.647394
C      -2.168748   -0.380406   -1.376961
H       1.087314    1.934529    0.109310
H      -0.385158    1.993138   -0.867149
H      -0.492684    2.006329    0.897418
H       0.564595   -0.352646   -0.792769
H       0.475956   -0.339260    0.960453
H      -1.795345    0.056818    2.136097
H      -3.271192    0.032272    1.151210
H      -1.666499   -2.428245    2.062972
H      -3.260455   -2.472436    1.271720
H      -3.067420    0.238596   -1.420664
H      -1.530573   -0.144185   -2.233091
