19

C       0.150472    1.535499    0.290364
O       1.560379    1.435764    0.008379
C       1.381122    0.119444   -0.588955
C       2.456180   -0.866942   -0.255574
C       2.768389   -1.242795    0.984311
C       2.047056   -0.757093    2.222863
C       0.576522   -1.130443    2.199752
C      -0.298592   -0.819571    1.241615
C      -0.059578    0.020094    0.019133
H      -0.041153    1.880451    1.311189
H      -0.365480    2.194834   -0.422246
H       1.311382    0.226824   -1.680569
H       3.004642   -1.288474   -1.093746
H       3.573289   -1.959112    1.130035
H       2.514683   -1.180188    3.115175
H       2.157236    0.331606    2.293954
H       0.220802   -1.722416    3.039539
H      -1.320914   -1.173926    1.357636
H      -0.825327   -0.196632   -0.728995
