16

N       0.013634   -1.129113   -0.327834
C       0.081587   -0.018961   -0.016932
C       0.160988    1.393064    0.368531
C       1.516935    1.989695    0.136390
O       2.591373    1.619268    0.996479
C       3.320027    2.747566    0.427877
C       3.626583    2.286338   -1.020343
C       2.115033    2.384223   -1.227483
C       1.974070    3.390736   -0.082908
H      -0.583214    1.955539   -0.206363
H      -0.107679    1.488221    1.426727
H       4.062366    3.167534    1.102005
H       4.155917    3.055917   -1.587416
H       4.118559    1.315406   -1.125793
H       1.546608    2.332640   -2.147425
H       1.505762    4.361444    0.002226
