17

C      -0.012020    1.535380    0.081250
O       1.446224    1.465518   -0.048015
C       1.290016    0.162384   -0.698379
C       2.135062   -1.068900   -0.567870
C       1.418751   -2.150111   -0.227461
C      -0.010782   -1.954316    0.286183
C       0.077484   -0.820051    1.326314
C      -0.021433    0.002240    0.036728
O      -0.819827   -1.049697   -0.566239
H      -0.320170    2.027488    1.007333
H      -0.468788    2.024459   -0.789574
H       1.106115    0.349219   -1.769491
H       3.169989   -1.112072   -0.891734
H       1.842453   -3.149435   -0.218395
H      -0.544339   -2.881046    0.495293
H      -0.843403   -0.718295    1.904793
H       0.965249   -0.742164    1.952604
