18

O      -0.056298    1.439434    0.063501
C       0.004100    0.023264    0.009812
C       0.670218   -0.630841    1.241092
C      -0.102231   -1.965925    1.417385
C      -0.154890   -2.439161    2.794558
C      -0.186122   -2.809812    3.937276
N      -1.459826   -1.782576    0.826865
C      -2.140277   -0.564486    1.290812
C      -1.399056   -0.558398    0.005342
H       0.834835    1.782354   -0.056478
H       0.515705   -0.298797   -0.910412
H       1.742448   -0.797670    1.114720
H       0.535521    0.021106    2.107225
H       0.376459   -2.738167    0.802062
H      -0.219176   -3.148359    4.943211
H      -3.223471   -0.631494    1.281164
H      -1.731352   -0.016161    2.133868
H      -1.937761   -0.578516   -0.937015
