17

O       0.000915   -0.063130    0.018964
C      -0.023621    1.152981    0.012767
N      -1.166373    1.891553    0.043076
C      -1.145786    3.339511    0.091748
C       0.272569    3.851892   -0.052805
C       1.271039    3.201603   -1.042578
C       2.347852    3.750678   -0.091023
N       1.304331    3.209725    0.902045
C       1.230972    1.995845   -0.068120
H      -2.035029    1.386176    0.130063
H      -1.763532    3.762042   -0.712838
H      -1.554697    3.706394    1.043695
H       0.283591    4.944557    0.003124
H       1.248407    3.188465   -2.137284
H       3.303600    3.223621   -0.040351
H       2.482095    4.834448   -0.030609
H       2.106456    1.347719   -0.016061
