14

C       0.002791    1.484135    0.097769
C       1.297074    0.742696    0.006225
O       2.019895    0.490342    1.217870
C       1.228179   -0.337915    1.947287
C       1.204478   -0.987655    3.131472
O       0.066303   -1.738730    3.170459
N      -0.674728   -1.566032    1.993100
C       0.035985   -0.726992    1.290963
C      -0.020266   -0.041296   -0.014704
H      -0.279201    1.931305    1.044290
H      -0.303118    2.038096   -0.782673
H       1.960581    0.847562   -0.841979
H       1.845397   -1.052387    3.993605
H      -0.414540   -0.520560   -0.900972
