15

C       0.004963    1.482486    0.122113
N       1.372825    2.002864    0.007391
C       2.270654    1.354432   -0.789509
N       3.406218    1.782813   -1.304052
C       3.887323    0.645937   -1.905499
N       3.143011   -0.435310   -1.802171
N       2.078387    0.040053   -1.073936
C       0.989415   -0.682907   -0.598496
C      -0.000698   -0.026036    0.007856
H      -0.396268    1.788845    1.094711
H      -0.664030    1.918040   -0.643187
H       1.493720    3.002781    0.050965
H       4.824864    0.631437   -2.441372
H       1.040137   -1.752803   -0.746788
H      -0.856336   -0.563805    0.394269
