21

C       0.927754   -0.346475   -1.346263
C       0.115770    0.040391   -0.107345
C      -0.011002    1.560784    0.019778
N      -1.228803   -0.544039   -0.214080
C      -2.021017   -0.625635    1.051563
C      -2.801183   -1.875732    0.538905
N      -2.548497   -2.733437    1.740681
C      -1.300086   -1.914433    1.613736
C      -1.336865   -2.012600    0.046283
H       1.926809    0.098714   -1.308548
H       1.049869   -1.431266   -1.424595
H       0.423974    0.003516   -2.252896
H       0.647771   -0.337532    0.785940
H      -0.541587    1.969769   -0.845931
H      -0.564687    1.844374    0.920396
H       0.976981    2.028085    0.076003
H      -2.402677    0.244216    1.590343
H      -3.711799   -1.905217   -0.058391
H      -3.106401   -2.401270    2.532099
H      -0.463381   -2.014158    2.305393
H      -0.915794   -2.786108   -0.595100
