21

C       0.331096    0.819375    0.668310
N      -0.134370    0.099472   -0.523778
C      -1.365395   -0.574269   -0.382166
C      -2.670222   -0.157000   -0.528888
C      -3.503923   -1.281159   -0.284367
C      -2.693652   -2.354032    0.015504
C      -3.047984   -3.761687    0.363603
N      -1.384470   -1.920726   -0.054163
C      -0.208551   -2.738247    0.149855
H       1.278917    1.317221    0.440927
H      -0.385065    1.569498    1.036662
H       0.512223    0.105070    1.477150
H      -0.176039    0.730598   -1.314330
H      -2.982789    0.845024   -0.782425
H      -4.583131   -1.307706   -0.315762
H      -2.661167   -4.489039   -0.362424
H      -2.666865   -4.060088    1.348946
H      -4.135199   -3.868121    0.384828
H      -0.278890   -3.666752   -0.424857
H       0.656712   -2.170371   -0.195031
H      -0.068759   -2.997432    1.206378
