19

C      -0.012729    1.419597   -0.039467
N      -0.018438   -0.031789   -0.029517
C       0.559777   -0.670813   -0.954391
O       1.228977   -0.084065   -2.020840
C       1.763481   -1.103965   -2.851075
C       1.333016   -2.397014   -2.210369
N       1.739249   -3.606145   -2.733147
C       0.630439   -2.124169   -1.094510
C       0.002712   -3.058264   -0.111603
H       0.710629    1.863870   -0.733299
H      -1.011140    1.793136   -0.303405
H       0.200748    1.784300    0.971690
H       1.371048   -0.987130   -3.872313
H       2.857528   -1.011811   -2.899352
H       1.838217   -3.641352   -3.737861
H       1.259386   -4.417956   -2.370941
H       0.673546   -3.282694    0.726586
H      -0.894815   -2.599609    0.311182
H      -0.277759   -4.011986   -0.574187
