21

C       0.519696    0.467061   -0.645210
N      -0.028156   -0.240546    0.492072
C       0.717029   -1.078059    1.060734
O       0.284003   -1.747363    2.151444
C       1.124446   -2.775480    2.659713
C       0.865618   -4.120128    1.986440
N       1.350020   -4.119940    0.613745
C       2.694859   -4.643547    0.389589
C       1.493526   -5.417844   -0.029836
H       1.556996    0.186129   -0.893764
H      -0.103562    0.284939   -1.528522
H       0.494378    1.546913   -0.456847
H       1.745273   -1.320698    0.757059
H       2.182160   -2.495115    2.558530
H       0.893603   -2.847396    3.726333
H       1.328973   -4.916728    2.598332
H      -0.215128   -4.299537    1.971681
H       3.295386   -4.114664   -0.344803
H       3.249311   -5.015554    1.250497
H       1.248798   -6.305263    0.552177
H       1.200799   -5.463925   -1.074732
