19

O       0.061816    1.518345    0.128940
C       0.147133    0.094884    0.084321
C       0.581666   -0.458357    1.447123
C       1.002282   -1.902851    1.481108
C       0.456763   -2.957365    0.877145
C      -0.740365   -3.082475   -0.024456
C      -1.563595   -1.883861   -0.432078
O      -2.083416   -0.994951    0.563186
C      -1.169608   -0.470293   -0.415694
H      -0.604277    1.747907    0.787392
H       0.923582   -0.110427   -0.661964
H       1.413696    0.167231    1.783476
H      -0.243632   -0.298349    2.154769
H       1.871968   -2.102465    2.103546
H       0.932339   -3.920700    1.057104
H      -0.418375   -3.569195   -0.958288
H      -1.431568   -3.808795    0.430627
H      -2.309976   -2.151392   -1.184553
H      -1.639475    0.184958   -1.151785
