18

C      -0.189853    1.559801    0.013493
C       0.021198    0.048512   -0.005005
C       0.876058   -0.500540   -1.196424
C       1.972599   -1.278844   -0.435880
C       2.911986   -0.273245    0.254712
O       2.065742    0.241882    1.297733
C       0.855330   -0.505823    1.172204
O       1.261486   -1.778863    0.712314
H       0.768655    2.085275    0.039181
H      -0.743492    1.889221   -0.871377
H      -0.761528    1.868144    0.895750
H      -0.950013   -0.457350    0.011390
H       0.297108   -1.167188   -1.838959
H       1.291297    0.297595   -1.818393
H       2.457628   -2.095872   -0.967621
H       3.789123   -0.758394    0.698339
H       3.239381    0.537179   -0.405391
H       0.367142   -0.573347    2.144716
