19

C      -0.028893    1.546656   -0.013853
C       0.066762    0.008021   -0.020860
C       0.785506   -0.468737   -1.202349
C       1.372756   -0.846984   -2.181207
C       0.700145   -0.506672    1.290220
C       0.832651   -2.042107    1.402042
O       2.099133   -2.225825    2.018021
C       2.884332   -1.168982    1.532419
O       2.038355   -0.036349    1.442134
H       0.968878    1.981854    0.073193
H      -0.491419    1.910421   -0.934312
H      -0.631142    1.884282    0.835543
H      -0.954302   -0.401019   -0.053829
H       1.887627   -1.182078   -3.047471
H       0.106795   -0.106061    2.123057
H       0.070918   -2.495983    2.039267
H       0.805752   -2.511001    0.408461
H       3.689134   -0.966765    2.245725
H       3.299018   -1.406410    0.538407
