20

C      -0.300959    1.245478   -0.070479
O       0.194048   -0.064235    0.067956
C       0.775423   -0.582595   -1.111075
C       1.374712   -1.962236   -0.834744
C       0.462499   -3.068686   -0.370844
C       0.810922   -2.953003   -1.833804
C      -0.159887   -2.191111   -2.717654
N      -1.340631   -1.649695   -2.012455
C      -0.189586   -0.768080   -2.296037
H       0.482532    1.947291   -0.401969
H      -1.136848    1.301586   -0.783419
H      -0.660098    1.561231    0.912228
H       1.579258    0.095829   -1.448458
H       2.415529   -1.997169   -0.533912
H       0.924949   -3.874752    0.188490
H      -0.546265   -2.813007   -0.075580
H       1.435322   -3.704590   -2.302165
H      -0.261606   -2.481502   -3.757975
H      -2.080868   -1.458300   -2.683319
H      -0.315638    0.041193   -3.008746
