18

C      -0.243333    1.555157   -0.043669
C       0.030864    0.062247    0.019912
O       0.753893   -0.380447   -1.151863
C       1.821647   -1.176416   -0.637044
C       2.938708   -0.238800   -0.142429
C       2.292759    0.265529    1.185220
C       0.941635   -0.479205    1.145524
O       1.312550   -1.741090    0.556577
H       0.678128    2.135450   -0.137464
H      -0.869733    1.780821   -0.911205
H      -0.778016    1.886481    0.853303
H      -0.924162   -0.480289    0.059818
H       2.087621   -1.950822   -1.356309
H       3.867145   -0.787534    0.035038
H       3.132792    0.556766   -0.863899
H       2.865940   -0.056254    2.057125
H       2.188448    1.350503    1.233746
H       0.447776   -0.641205    2.102762
