19

C       0.207112    1.529474    0.251656
C      -0.105828    0.057016   -0.072925
C       0.562446   -0.447146   -1.313382
C       0.053320   -0.760999   -2.554337
C       1.130797   -1.174549   -3.396525
C       1.041407   -1.611647   -4.827797
C       2.272079   -1.097958   -2.632678
N       1.920614   -0.657014   -1.377682
H       1.279982    1.685517    0.407176
H      -0.104281    2.181103   -0.570062
H      -0.311367    1.849384    1.161297
H       0.171492   -0.567762    0.787833
H      -1.186328   -0.065003   -0.198843
H      -0.989474   -0.701957   -2.832082
H       0.632081   -0.823135   -5.470761
H       2.026950   -1.877713   -5.221933
H       0.392104   -2.487378   -4.946711
H       3.298099   -1.324204   -2.877634
H       2.559980   -0.520105   -0.614664
