19

C      -0.634894    1.278717   -0.041440
C       0.131594   -0.034327   -0.060602
C       1.524785   -0.117980   -0.743393
C       1.968647   -1.110101    0.364454
C       0.773332   -0.611919    1.235887
C       1.183080    0.421465    2.280620
O      -0.057088   -1.605685    1.812120
H      -0.021723    2.103315    0.337494
H      -0.961959    1.550797   -1.051109
H      -1.529366    1.207306    0.587047
H      -0.507858   -0.829064   -0.460067
H       1.555870   -0.468498   -1.777102
H       2.064858    0.832519   -0.685828
H       1.807197   -2.150091    0.070147
H       2.976517   -1.003110    0.775575
H       1.799886    1.215727    1.849172
H       0.303262    0.878681    2.743157
H       1.777026   -0.056125    3.070639
H       0.351269   -1.903584    2.632342
