14

O      -0.055637    1.425944   -0.011222
C      -0.049191    0.053061   -0.000817
C      -0.350361   -0.836297   -1.188316
C      -1.181349   -0.937338    0.063812
O      -0.524736   -1.746520    1.043387
C       0.568172   -0.813824    1.131375
C       1.936387   -1.370001    0.843156
O       2.160958   -2.445179    0.350729
H       0.552732    1.734282   -0.691923
H      -0.836385   -0.307499   -2.003213
H       0.305861   -1.654550   -1.470005
H      -2.256917   -0.830855    0.123523
H       0.558458   -0.277261    2.089338
H       2.756805   -0.651641    1.082361
