21

C       0.046972    1.390821   -0.045564
N       0.061646   -0.055325   -0.091259
C      -1.050522   -0.643863   -0.024957
O      -1.112291   -1.986140   -0.061569
C      -2.404841   -2.648854    0.015307
C      -3.279088   -2.255388   -1.182654
C      -2.037825   -4.132548   -0.057156
C      -3.089114   -2.332232    1.351616
H       0.647388    1.740753    0.802476
H       0.514368    1.794907   -0.951319
H      -0.961702    1.829115    0.044472
H      -2.014231   -0.123062    0.064199
H      -2.745787   -2.443521   -2.118694
H      -4.199448   -2.847221   -1.184863
H      -3.565367   -1.200281   -1.155308
H      -1.381310   -4.402238    0.774154
H      -2.937422   -4.752759   -0.008944
H      -1.512933   -4.348514   -0.991319
H      -3.372517   -1.278950    1.430535
H      -4.000965   -2.928097    1.455582
H      -2.422835   -2.573149    2.184688
