20

C      -0.159655    1.551182   -0.040976
C       0.047863    0.034868   -0.013219
N       0.752233   -0.461878   -1.179209
N       0.081737   -0.673597   -2.338321
C       1.009386   -1.111013   -3.182346
C       2.294921   -1.167473   -2.600870
C       3.590284   -1.595640   -3.217751
C       2.081270   -0.728899   -1.301696
N       2.948229   -0.610474   -0.203660
H       0.796162    2.085614   -0.043759
H      -0.712778    1.837875   -0.938994
H      -0.727200    1.873685    0.837509
H       0.623607   -0.269933    0.865627
H      -0.917344   -0.477218    0.017167
H       0.730769   -1.368396   -4.195206
H       4.438321   -1.034428   -2.806070
H       3.804082   -2.661424   -3.064574
H       3.585521   -1.422489   -4.298185
H       3.857946   -0.999905   -0.415722
H       3.074174    0.347598    0.106227
