15

O      -0.169042    1.366772   -0.219876
N       0.033890   -0.003918   -0.006065
C      -1.065887   -0.609362    0.142834
C      -2.554738   -0.262293    0.016812
C      -2.825720   -1.775243    0.154352
C      -1.340615   -2.071850    0.301496
N      -2.268136   -2.196368    1.428568
C      -2.538569   -3.419018    2.026177
O      -1.720605   -4.271526    2.267249
H       0.731589    1.693510   -0.322226
H      -2.989886    0.377115    0.787009
H      -2.786822    0.138546   -0.973670
H      -3.576916   -2.369563   -0.350246
H      -0.752841   -2.926034   -0.005314
H      -3.599938   -3.487045    2.333022
