21

C      -0.092531    1.590786   -0.137948
C      -0.005263    0.069404   -0.012339
C      -1.367902   -0.566921   -0.301592
C       1.133112   -0.637515   -0.839378
C       1.730684   -1.210519    0.447038
C       2.113802   -0.132875    1.387877
C       0.639964   -0.475578    1.290494
C      -0.042370   -1.056200    2.457105
O       0.523866   -1.554339    3.406346
H       0.867607    2.076531    0.056484
H      -0.409791    1.877691   -1.147044
H      -0.822968    1.999745    0.569326
H      -1.670476   -0.352452   -1.332448
H      -1.338497   -1.654868   -0.179313
H      -2.148650   -0.174243    0.358894
H       0.740881   -1.397064   -1.518951
H       1.800133    0.024255   -1.401945
H       2.041749   -2.236902    0.598160
H       2.557861   -0.454991    2.323396
H       2.463257    0.825124    1.013031
H      -1.153223   -1.030315    2.415448
