20

C       0.080751    1.585374   -0.021123
C       0.026121    0.057900    0.033369
C       0.708730   -0.621142   -1.191342
C       1.949698   -1.251322   -0.602621
C       1.929683   -1.146388    0.726314
N       0.797911   -0.463542    1.191489
C       0.340071   -0.341507    2.477660
C       1.205845   -0.950476    3.569728
O      -0.711073    0.229013    2.722871
H       1.115536    1.930132   -0.121736
H      -0.485407    1.946676   -0.885851
H      -0.352361    2.012898    0.884549
H      -1.012194   -0.259230    0.153966
H       0.060371   -1.372480   -1.660156
H       0.938602    0.118943   -1.966322
H       2.725609   -1.734948   -1.177905
H       2.657857   -1.510355    1.435885
H       2.205056   -0.503155    3.586475
H       0.715316   -0.764024    4.524389
H       1.325813   -2.029901    3.431701
