17

O      -0.093839    1.345816    0.026116
C       0.056781   -0.046617    0.011855
C       1.039944   -0.670315    0.974117
C       1.334796   -1.902289    0.540025
C       0.554473   -2.164907   -0.723380
C      -1.000426   -2.167768   -0.526853
C      -1.226520   -1.052283   -1.511537
C      -1.325402   -0.758321   -0.038831
C       0.309093   -0.761912   -1.362449
H       0.778725    1.736068   -0.095125
H       1.350239   -0.206764    1.903695
H       1.944407   -2.637674    1.052295
H       0.911962   -2.956475   -1.382485
H      -1.636537   -3.012213   -0.294494
H      -1.926869   -0.932377   -2.323774
H      -2.194816   -0.535056    0.565255
H       0.988361   -0.333553   -2.099464
