25

C      -0.547908    0.279313   -2.751752
C      -0.210017   -0.567820   -1.514722
C       0.852687    0.118496   -0.643726
C      -1.469661   -0.848574   -0.710357
C      -2.452300   -1.912499   -1.121643
O      -2.107646   -2.668173   -2.251007
C      -1.677691   -2.073732    0.175587
C      -0.618146   -3.156204    0.255088
C      -2.444356   -1.862180    1.468176
H       0.351324    0.490530   -3.340627
H      -1.263730   -0.241125   -3.393746
H      -0.987139    1.241694   -2.461563
H       0.198215   -1.517768   -1.872524
H       0.486910    1.080248   -0.263979
H       1.124248   -0.497102    0.219640
H       1.764208    0.315466   -1.218279
H      -1.928387    0.062587   -0.326318
H      -3.516607   -1.682786   -1.047861
H      -2.439254   -3.563387   -2.125225
H      -0.179079   -3.375956   -0.719383
H       0.190039   -2.872797    0.938793
H      -1.053206   -4.087166    0.640407
H      -2.920737   -2.791459    1.804617
H      -1.779584   -1.522082    2.271562
H      -3.229833   -1.108530    1.350832
