15

C       0.014186   -1.200810   -0.063920
C       0.013493    0.003004   -0.035376
C      -0.014852    1.415649    0.000770
C      -1.092530    2.268232    0.137240
C      -2.529584    2.737960    0.303144
C      -1.917311    4.189503    0.270844
N      -0.595678    3.532645    0.113159
C       0.758715    3.464730   -0.034906
N       1.129954    2.203086   -0.104554
H       0.024891   -2.261835   -0.090254
H      -3.204294    2.510642   -0.525000
H      -3.013452    2.469521    1.244709
H      -2.199860    4.805200   -0.585508
H      -2.007965    4.763938    1.194999
H       1.413028    4.320567   -0.085575
