16

C      -0.101944    1.518022    0.053151
C       0.136432    0.045920   -0.004312
O      -0.748424   -0.823213    0.703003
C       0.645545   -0.940443    0.985284
C       1.260376   -1.811608   -0.125493
O       0.558876   -3.024493   -0.432902
C      -0.269521   -2.696326   -1.466536
N      -0.230271   -1.538573   -1.988388
C       0.726229   -0.792440   -1.182750
H       0.784974    2.067563   -0.277705
H      -0.934870    1.795564   -0.601576
H      -0.349374    1.826268    1.072381
H       0.958548   -0.826703    2.017514
H       2.330036   -2.008244   -0.049890
H      -0.907942   -3.510678   -1.790122
H       1.458468   -0.250482   -1.784815
