19

C      -0.015273    1.653853    0.218874
C       1.436494    1.180341    0.048551
O       1.110757    0.004015    0.913832
C      -0.004726    0.117742   -0.071890
C      -1.118516   -0.806967   -0.328832
C      -1.387766   -1.055932   -1.617058
C      -0.603704   -0.526531   -2.808543
C       0.394504    0.631337   -2.513029
C       1.040264    0.300902   -1.177824
H      -0.290740    1.924786    1.238438
H      -0.451468    2.320816   -0.527184
H       2.368968    1.699362    0.272055
H      -1.727880   -1.205340    0.476383
H      -2.230389   -1.696964   -1.868235
H      -0.059446   -1.374860   -3.249727
H      -1.312735   -0.212015   -3.583995
H       1.119843    0.712275   -3.329083
H      -0.150098    1.579663   -2.476613
H       1.689523   -0.576772   -1.249250
