16

C      -0.072345    1.602882   -0.005555
C       0.042769    0.087747   -0.132203
C       0.536503   -0.779629   -1.230075
C       1.830370   -0.389033   -1.966070
C       2.440000    0.903102   -1.496612
C       2.479434   -0.310464   -0.605106
N       1.229154   -0.773750    0.117671
H      -0.156644    2.104856   -0.972880
H      -0.973801    1.844089    0.564669
H       0.775109    2.031996    0.534832
H      -0.785579   -0.408531    0.373699
H      -0.023584   -1.656757   -1.544408
H       2.162766   -0.908578   -2.854616
H       3.408727    1.096081   -1.951235
H       1.875969    1.801051   -1.300902
H       3.409081   -0.730867   -0.243802
