21

C       0.134095    1.386111    0.437843
C       0.118498   -0.103725    0.077101
C      -1.287665   -0.689346    0.074232
C      -2.463728   -0.078095    0.704693
O      -2.284242   -0.020973   -0.712554
C       0.802494   -0.440610   -1.256803
O       0.719347   -1.810848   -1.583211
C       0.837363    0.517569   -2.418047
C       2.108227    0.173978   -1.663153
H       1.128762    1.820728    0.315540
H      -0.567246    1.945837   -0.187135
H      -0.152011    1.531375    1.483098
H       0.672209   -0.659921    0.847528
H      -1.307980   -1.773669   -0.036012
H      -3.277203   -0.716960    1.047052
H      -2.380101    0.875063    1.221292
H      -0.129645   -1.958714   -2.013679
H       0.714020    0.091479   -3.407601
H       0.417934    1.508967   -2.297082
H       2.562152    0.934199   -1.038525
H       2.809645   -0.496586   -2.145374
