20

C       0.063255    1.422949    0.090448
C      -0.035310   -0.085013    0.090911
C      -0.639840   -0.755468   -1.145962
C      -1.353365   -2.029051   -0.630234
C      -1.391559   -1.864710    0.913219
N      -0.504107   -0.751156    1.301170
C       0.934452   -0.870747    0.947413
C       1.619301   -2.108161    0.496326
O       2.781995   -2.326641    0.747742
H       0.755726    1.766758   -0.685354
H      -0.917013    1.869751   -0.110580
H       0.415175    1.792071    1.056330
H      -1.357128   -0.059052   -1.592513
H       0.106069   -0.973260   -1.915620
H      -2.361326   -2.117949   -1.043103
H      -0.817743   -2.934754   -0.924606
H      -2.395233   -1.583266    1.247083
H      -1.118216   -2.778268    1.449121
H       1.575415   -0.293283    1.609664
H       1.027361   -2.836690   -0.092173
