18

C       0.070994    1.526186    0.159058
O       1.485946    1.399334   -0.206936
C       1.163693    0.121888   -0.840465
C       1.815056   -1.272237   -0.681058
C       0.626225   -1.919524    0.103739
C       0.477959   -0.867942    1.229948
C      -0.050854   -0.004643    0.057532
C      -0.713471   -1.295864   -0.486925
H      -0.058381    1.986297    1.142741
H      -0.480468    2.094338   -0.601886
H       0.914781    0.322181   -1.892315
H       2.028904   -1.736144   -1.647549
H       2.729775   -1.282903   -0.082679
H       0.684773   -2.987754    0.314990
H      -0.313946   -1.106719    1.944739
H       1.380455   -0.536678    1.748709
H      -0.895286   -1.354812   -1.563549
H      -1.583142   -1.654325    0.068252
