17

C       0.096823    1.533167    0.126210
C       0.060778    0.005840    0.049660
C       0.594640   -0.525006   -1.295566
C       0.600999   -2.005001   -1.386622
C      -0.021091   -2.896204   -2.155587
O       0.361469   -4.173161   -1.783365
C       1.246084   -4.044804   -0.749552
O       1.784530   -4.933299   -0.173355
O       1.402953   -2.708442   -0.494655
H       1.118614    1.912058    0.014184
H      -0.513356    1.986620   -0.662897
H      -0.285755    1.887378    1.087738
H       0.656265   -0.425141    0.861672
H      -0.964735   -0.355074    0.191385
H      -0.012213   -0.138669   -2.122153
H       1.615514   -0.151406   -1.452029
H      -0.721005   -2.808631   -2.967146
