23

C      -0.254796    1.478853   -0.271769
C       0.056758   -0.005152   -0.117976
C       1.291549   -0.618968   -0.864833
C       1.811873   -1.151975    0.472452
C       2.023364   -0.007416    1.425793
C       0.625190   -0.526654    1.223008
C      -0.248078   -1.067195    2.299330
C       0.227575   -1.326976    3.707762
C      -0.721747   -0.188867    3.439969
H       0.611954    2.103874   -0.032613
H      -0.554101    1.711655   -1.300008
H      -1.075111    1.779199    0.389354
H      -0.837796   -0.585698   -0.369763
H       1.009452   -1.397689   -1.577142
H       1.950038    0.093979   -1.374626
H       2.280806   -2.115633    0.633915
H       2.490803   -0.273667    2.367838
H       2.322284    0.969708    1.051969
H      -0.989606   -1.775276    1.933827
H      -0.153033   -2.208957    4.211089
H       1.250571   -1.080345    3.967930
H      -0.319763    0.817247    3.490356
H      -1.750385   -0.278831    3.771373
