17

O       0.006663    1.386510    0.014324
C      -0.036143    0.012641    0.080626
C       0.444887   -0.815914    1.312430
C      -0.401472   -1.926521    0.658219
C       0.025803   -2.098282   -0.866932
C      -1.427968   -1.659802   -1.267297
C      -1.370614   -0.868375    0.055508
C       0.688050   -0.742882   -1.024984
O       1.481023   -0.289934   -1.808856
H       0.607109    1.607473   -0.713765
H       1.521983   -0.953778    1.452764
H      -0.013898   -0.464144    2.240500
H      -0.741363   -2.815764    1.183563
H       0.511759   -2.980968   -1.275878
H      -1.554044   -1.130515   -2.217018
H      -2.135521   -2.491190   -1.210818
H      -2.237634   -0.468281    0.578469
