20

C       1.226223    1.703751   -0.554281
N       1.186218    0.254488   -0.525092
C       0.390171   -0.478651   -1.356524
O      -0.355906    0.028379   -2.179200
C       0.527594   -1.982711   -1.205351
C      -0.689312   -2.811118   -1.659786
O       0.073321   -3.490447   -2.676409
C       1.267850   -2.745692   -2.358434
C       1.798913   -1.966928   -3.545274
H       2.228687    2.071056   -0.800801
H       0.526863    2.030384   -1.324511
H       0.923789    2.130209    0.408568
H       1.767155   -0.231850    0.137119
H       0.907410   -2.249499   -0.216305
H      -1.092299   -3.505461   -0.913320
H      -1.494100   -2.204914   -2.086835
H       2.045553   -3.417273   -1.968431
H       1.054603   -1.255959   -3.909714
H       2.708922   -1.420284   -3.272753
H       2.048905   -2.663605   -4.351429
