23

C       0.037122    1.596068    0.059478
C      -0.090927    0.075161   -0.061239
C       0.745011   -0.505055   -1.206681
C       0.618199   -2.023601   -1.331444
N       1.459971   -2.522271   -2.416694
C       1.506739   -3.975301   -2.554943
C       0.199299   -4.667522   -3.001411
C       2.593165   -4.323967   -3.488911
N       3.421431   -4.608429   -4.242359
H       1.076393    1.892061    0.239128
H      -0.293991    2.095258   -0.857905
H      -0.567319    1.982864    0.885609
H       0.214544   -0.393955    0.883395
H      -1.145588   -0.193657   -0.206131
H       0.435718   -0.038814   -2.153270
H       1.802977   -0.251553   -1.071112
H       0.962554   -2.497081   -0.402028
H      -0.448234   -2.290623   -1.440623
H       1.188102   -2.101232   -3.299997
H       1.793415   -4.377694   -1.574003
H      -0.598595   -4.461329   -2.284075
H      -0.110224   -4.302969   -3.985567
H       0.333672   -5.751019   -3.064941
