21

C       0.618130    1.055357    0.388467
O       0.508895   -0.326336    0.101900
C       0.517335   -0.616505   -1.274079
O       1.743397   -0.270679   -1.882452
C       2.684194   -1.333564   -1.668892
C       1.848727   -2.613893   -1.515022
C       1.645861   -3.243960   -0.103138
C       0.112398   -3.021554   -0.235710
C       0.368771   -2.133721   -1.482453
H       1.552806    1.474862   -0.000879
H      -0.223667    1.618340   -0.043229
H       0.594633    1.160461    1.475394
H      -0.248985   -0.014392   -1.782891
H       3.348645   -1.347309   -2.537637
H       3.290145   -1.135790   -0.774513
H       2.073076   -3.351434   -2.287391
H       1.979217   -4.277594    0.014204
H       2.091531   -2.638500    0.690000
H      -0.423138   -3.937614   -0.496971
H      -0.389340   -2.538238    0.602021
H      -0.243735   -2.325394   -2.365408
