16

O       0.126126    1.353896    0.087781
C       0.033518   -0.027127   -0.213965
C      -1.389258   -0.549720   -0.036227
C      -1.602800   -2.071294   -0.103013
O      -0.851889   -2.652678    0.972647
C      -2.139388   -2.127616    1.264649
C      -1.998400   -0.597662    1.433831
C      -1.161072   -0.116147    2.520301
N      -0.466716    0.291498    3.350973
H       0.233135    1.441088    1.041297
H       0.324511   -0.144435   -1.264534
H       0.724758   -0.626924    0.389975
H      -2.075394   -0.004292   -0.688654
H      -1.803664   -2.698404   -0.962796
H      -2.865088   -2.780809    1.733144
H      -2.969412   -0.098541    1.470304
