19

C      -0.317322    1.483649    0.342101
O       0.290648    0.250046    0.011180
C       0.710246   -0.465538    1.132265
C      -0.300261   -1.378061    1.943568
C      -0.226926   -2.430879    0.763359
C      -1.039424   -2.282449   -0.517469
C       1.260966   -1.903462    0.888477
C       0.989715   -2.073048    2.393600
O       1.492316   -2.536740    3.369780
H       0.354612    2.110775    0.947033
H      -0.533153    1.997211   -0.597002
H      -1.255005    1.341384    0.897819
H       1.340950    0.178461    1.762959
H      -1.165217   -1.084901    2.534700
H      -0.331965   -3.460561    1.122340
H      -0.963605   -1.291147   -0.955111
H      -0.695252   -3.017281   -1.253717
H      -2.092919   -2.501951   -0.310698
H       2.131787   -2.191379    0.303905
