19

C      -0.279394    1.295199   -0.194070
C       0.004554   -0.159125    0.078712
C      -0.655435   -0.905407    1.209648
C       0.836869   -0.676906    1.228441
C       1.678923   -1.804302    0.664072
O       1.024756   -2.204309   -0.539377
C       0.402884   -1.048776   -1.107218
C      -0.706196   -1.457255   -1.963032
C      -1.629916   -1.744297   -2.675502
H       0.564643    1.780775   -0.698174
H      -1.160900    1.407634   -0.835059
H      -0.471915    1.838906    0.735464
H      -1.257507   -0.319256    1.895328
H      -1.019933   -1.911167    1.026243
H       1.277780   -0.003911    1.955141
H       2.703097   -1.451592    0.460463
H       1.739689   -2.691718    1.302559
H       1.133296   -0.490610   -1.720166
H      -2.443472   -2.011081   -3.303829
