18

O       0.075927    1.306644   -0.065789
C       0.042554   -0.066805    0.008980
C       0.623320   -1.006825   -1.072496
C       0.023212   -1.944621    0.018704
C       0.676774   -1.016669    1.084876
C      -1.203205   -0.990859    0.011896
O      -2.009733   -0.890534    1.173068
C      -3.153167   -1.603771    1.190069
N      -3.885847   -1.596721    2.217297
H      -0.388927    1.661352    0.700932
H       0.135605   -0.998076   -2.051192
H       1.710719   -1.017312   -1.158814
H       0.007731   -3.031165    0.011162
H       1.768122   -1.026741    1.124854
H       0.225191   -1.014045    2.076471
H      -1.823066   -0.986533   -0.891582
H      -3.346200   -2.142039    0.251823
H      -4.711934   -2.169456    2.057220
