21

C      -0.181560    1.507648    0.335140
C       0.058289    0.043639    0.079484
C      -1.145049   -0.935679   -0.021546
C      -0.382263   -1.912844    0.894184
C      -0.977542   -2.713238    2.015029
C      -0.351110   -3.411986    0.829563
C       0.814211   -0.962232    1.011776
C       1.818825   -1.053931   -0.146652
O       1.016748   -0.190151   -0.984864
H       0.759769    2.029320    0.532190
H      -0.648817    1.970934   -0.541592
H      -0.848699    1.650549    1.191230
H      -2.073916   -0.552218    0.413473
H      -1.336504   -1.274141   -1.043119
H      -0.447946   -2.741967    2.962426
H      -2.059116   -2.732199    2.108779
H      -1.007924   -3.905067    0.120032
H       0.600425   -3.913744    0.976722
H       1.189822   -0.723462    2.007631
H       2.799375   -0.605454    0.060608
H       1.965511   -2.047333   -0.588352
