19

C      -0.023769    1.514695    0.010995
C       0.026029    0.010695   -0.034025
C       0.709366   -0.761940   -1.183495
C       0.962704   -2.054345   -0.491770
O       1.173201   -1.909076    0.890527
C       0.356042   -0.818800    1.292099
C      -1.129924   -1.261450    1.369535
C      -1.236452   -0.910323   -0.130396
C      -0.415729   -1.817561   -1.075555
H       0.978779    1.939799    0.140124
H      -0.443922    1.925748   -0.913427
H      -0.643437    1.868826    0.842604
H       1.254632   -0.360258   -2.028251
H       1.585019   -2.825149   -0.929362
H       0.818127   -0.331279    2.153210
H      -1.303813   -2.290904    1.691564
H      -1.726884   -0.577457    1.980909
H      -2.172641   -0.543227   -0.554757
H      -0.823164   -2.467960   -1.841495
