23

C       0.077987    1.570627    0.062329
C       0.114519    0.040541    0.057469
C       0.605091   -0.539733   -1.283462
C       0.654636   -2.039233   -1.307249
C      -0.096701   -2.859167   -2.052469
C       0.197560   -4.322664   -1.800284
C       1.379174   -4.283384   -0.831203
C       2.649068   -3.612932   -1.286069
C       1.630257   -2.825713   -0.483192
H       1.073378    1.991902   -0.117838
H      -0.587886    1.953301   -0.719313
H      -0.278700    1.957750    1.021969
H       0.762756   -0.312111    0.869156
H      -0.885075   -0.357402    0.270616
H      -0.050783   -0.183878   -2.087253
H       1.606238   -0.135394   -1.493167
H      -0.827116   -2.530238   -2.784489
H      -0.667376   -4.834303   -1.355282
H       0.431823   -4.867447   -2.724658
H       1.461190   -5.055159   -0.075006
H       3.565838   -3.907584   -0.785200
H       2.766112   -3.362661   -2.336133
H       1.891476   -2.501681    0.518487
