13

C       0.067525    1.481501    0.004772
C      -0.075866    0.003417    0.015069
C      -1.124834   -0.839184   -0.161871
C      -0.600515   -2.175578   -0.028989
C       0.734906   -2.030748    0.219750
O       1.063015   -0.724148    0.248693
C      -1.310065   -3.397097   -0.132170
N      -1.899980   -4.389819   -0.218537
H       0.769269    1.808638   -0.770082
H      -0.901422    1.944936   -0.190620
H       0.440303    1.852672    0.965578
H      -2.148543   -0.568344   -0.362171
H       1.529939   -2.737464    0.387915
