21

C      -0.655127    1.384690   -0.035900
C       0.063778    0.044596   -0.033912
C       1.401978   -0.051892   -0.825056
N       2.018438   -0.626697    0.367568
C       0.860127   -0.410971    1.245697
C       1.071248    0.596348    2.369566
C       3.313109   -0.884944    0.713613
N       4.216712   -0.781295   -0.341160
O       3.657710   -1.154290    1.853179
H       0.008792    2.206040    0.249388
H      -1.046377    1.606896   -1.034713
H      -1.502982    1.382577    0.656910
H      -0.626939   -0.742180   -0.348170
H       1.393105   -0.710092   -1.703697
H       1.824706    0.918612   -1.119848
H       0.487206   -1.349743    1.672357
H       1.437975    1.555444    1.991623
H       0.132074    0.771389    2.905015
H       1.810998    0.204757    3.070276
H       3.880012   -0.982305   -1.270944
H       5.104865   -1.207994   -0.124300
