15

C       0.015581    1.397507    0.041662
N      -0.129911   -0.041716   -0.083484
C      -1.314180   -0.671446    0.037205
O      -2.379284   -0.129730    0.290116
C      -1.289163   -2.222326   -0.096345
O      -2.607789   -2.679213   -0.217957
C      -0.443536   -2.667670   -1.205732
C       0.283118   -3.021829   -2.095637
H       0.246154    1.861338   -0.923755
H      -0.930697    1.796383    0.407535
H       0.811102    1.645187    0.751109
H       0.650282   -0.588189   -0.415104
H      -0.839628   -2.595677    0.842027
H      -3.146377   -1.890832   -0.022261
H       0.907325   -3.349240   -2.890514
