21

C      -0.513791    1.070645   -0.937686
N       0.076366   -0.201856   -1.305135
C       1.028892   -0.810487   -0.540407
O       1.449154   -0.341560    0.502378
C       1.552221   -2.154714   -1.064201
C       1.176497   -2.517400   -2.483400
C       1.079253   -3.926990   -2.951957
N      -0.123326   -3.105019   -2.862371
C      -1.084446   -3.470775   -1.827270
H      -0.035968    1.394540   -0.012519
H      -0.345112    1.825572   -1.713603
H      -1.592806    0.978436   -0.769951
H      -0.231643   -0.653779   -2.150426
H       2.642639   -2.107784   -0.973516
H       1.231345   -2.920058   -0.351121
H       1.516684   -1.787452   -3.218206
H       1.403839   -4.203810   -3.951616
H       1.209740   -4.706013   -2.201065
H      -0.643512   -3.938175   -0.933789
H      -1.641495   -2.584790   -1.507333
H      -1.796109   -4.182096   -2.257682
