21

C       0.001628    1.519969   -0.020586
C       0.011322    0.063813   -0.042389
C       0.031172   -1.140177   -0.060882
C       0.025139   -2.600270   -0.083571
C      -1.379157   -3.207002    0.069133
C      -1.410176   -4.744360    0.065597
C      -2.738808   -5.052686    0.773684
O      -3.056716   -3.913655    1.576770
C      -2.063097   -2.910401    1.409306
H       1.010163    1.926240   -0.156339
H      -0.628201    1.927240   -0.819323
H      -0.383050    1.902972    0.931146
H       0.470275   -2.954946   -1.022438
H       0.668306   -2.986248    0.720002
H      -2.016602   -2.829540   -0.739227
H      -1.355421   -5.177811   -0.936288
H      -0.564215   -5.133456    0.644959
H      -3.552098   -5.212173    0.052320
H      -2.676924   -5.944747    1.409284
H      -1.326601   -2.951045    2.230365
H      -2.549029   -1.931302    1.441751
