17

C      -0.007295    1.510747    0.095240
C       0.009888    0.019013   -0.005026
C      -0.003951   -0.756098   -1.113312
C       0.022050   -2.230115   -0.795604
C       0.055501   -2.270543    0.734215
O       0.083068   -3.254372    1.423499
C       0.047764   -0.820348    1.245916
C      -0.039939   -0.292539   -2.500999
O      -0.050734   -1.045133   -3.452797
H       0.877907    1.865015    0.638152
H      -0.034890    2.010547   -0.873633
H      -0.876898    1.842238    0.676393
H      -0.853078   -2.769036   -1.177412
H       0.893675   -2.746312   -1.214982
H       0.934680   -0.626887    1.864241
H      -0.816344   -0.649554    1.902054
H      -0.057466    0.806980   -2.651223
