23

C      -1.471211   -0.286774   -0.026249
C       0.047432   -0.210175    0.170903
C       0.501401   -1.152868    1.294912
O      -0.144020   -0.888938    2.534868
C       0.783506   -0.482035   -1.155273
C       2.284098   -0.272864   -1.121951
O       2.571872    1.002289   -0.598189
C       3.224038   -1.417636   -0.839972
C       3.132296   -0.820245   -2.237033
H      -1.819599    0.470971   -0.735546
H      -1.766215   -1.269351   -0.415369
H      -1.987588   -0.138885    0.924979
H       0.309357    0.810730    0.481106
H       0.238275   -2.188467    1.044242
H       1.593025   -1.108626    1.407131
H       0.124179   -0.008305    2.816595
H       0.580137   -1.506967   -1.490514
H       0.364061    0.183371   -1.920709
H       3.523209    1.141805   -0.624320
H       4.118380   -1.206942   -0.260699
H       2.816201   -2.409031   -0.673497
H       2.658647   -1.402190   -3.020904
H       3.965536   -0.213963   -2.580163
