25

C      -1.759190    1.669705   -1.262404
C      -1.789869    0.144614   -1.374441
O      -0.891412   -0.314197   -2.385421
C      -1.512197   -0.537887   -0.027497
C      -1.576811   -2.077784   -0.054013
C      -0.873751   -2.660214    1.181811
C      -3.030044   -2.570748   -0.175289
C      -3.175145   -4.062400   -0.454851
O      -4.558297   -4.328091   -0.649438
H      -1.930284    2.126056   -2.241091
H      -2.525390    2.032181   -0.569397
H      -0.785432    2.012777   -0.889656
H      -2.777088   -0.157942   -1.742047
H      -0.005287   -0.027907   -2.135801
H      -0.509779   -0.226249    0.303109
H      -2.211906   -0.149441    0.725263
H      -1.028596   -2.401727   -0.948367
H       0.160614   -2.306028    1.247817
H      -1.386163   -2.359446    2.103980
H      -0.844157   -3.753640    1.162057
H      -3.582162   -2.329747    0.743074
H      -3.541196   -2.046384   -0.990175
H      -2.589594   -4.327429   -1.350817
H      -2.778329   -4.656225    0.382473
H      -4.662369   -5.270411   -0.809625
