14

N      -0.006573    1.378305    0.096536
C      -0.001173    0.020489    0.032142
C      -1.184849   -0.735519    0.022331
C      -1.107647   -2.115783   -0.008556
N       0.035897   -2.820059   -0.031508
C       1.158241   -2.112143   -0.025139
C       1.211601   -0.712744    0.003986
C       2.451584   -0.015302   -0.001002
N       3.430416    0.606414   -0.009396
H       0.852100    1.884049   -0.051031
H      -0.863045    1.878287   -0.066975
H      -2.149240   -0.239163    0.041914
H      -2.024027   -2.701039   -0.016106
H       2.091722   -2.668839   -0.046490
