17

O       0.359985    1.403933    0.147437
C       0.127081    0.027746    0.049523
C       0.319557   -0.789540    1.335675
O      -0.636681   -0.245069    2.263381
C      -1.082240   -1.234919    1.318745
C      -1.379505   -0.496673    0.006740
C      -2.488966    0.514392    0.016626
C      -3.116172    0.987280   -1.222135
O      -3.781988    0.040492   -0.386154
H       0.021744    1.674999    1.010519
H       0.704096   -0.341889   -0.800989
H       1.211702   -1.239289    1.755277
H      -1.534269   -2.131860    1.723982
H      -1.521352   -1.190837   -0.826564
H      -2.514739    1.172271    0.884314
H      -3.561414    1.980373   -1.257020
H      -2.768290    0.602492   -2.180313
