22

C       0.047528    1.379573    0.100399
O      -0.059673   -0.018075   -0.057041
C       0.656547   -0.554652   -1.157776
C       2.162311   -0.610265   -0.889261
C       0.003152   -1.945496   -1.445715
C       0.137161   -2.898933   -0.236734
C      -1.488476   -1.749746   -1.802018
C       0.680854   -2.537802   -2.609562
N       1.206629   -3.002385   -3.528590
H       1.062721    1.695479    0.377377
H      -0.244269    1.913249   -0.816984
H      -0.635158    1.662375    0.905219
H       0.478133    0.072840   -2.046725
H       2.684944   -1.106304   -1.711233
H       2.573197    0.398616   -0.797124
H       2.373022   -1.146754    0.039658
H      -0.296988   -2.420458    0.643245
H      -0.394473   -3.833601   -0.432057
H       1.180576   -3.142982   -0.026261
H      -1.601787   -1.101145   -2.675446
H      -1.959467   -2.709815   -2.027531
H      -2.000174   -1.288861   -0.955903
