17

O      -0.128698   -0.160486    0.152577
C      -0.031659    1.003887   -0.139570
C       1.249100    1.810987    0.024666
C       1.573901    2.667049   -1.189298
C       1.133339    2.341071   -2.549772
O       0.481171    3.366470   -1.793483
C       1.117669    2.707514    1.251252
C       1.539978    2.258446    2.581467
O       2.347066    3.160340    1.816149
H      -0.896976    1.579761   -0.529073
H       2.068320    1.106966    0.203688
H       2.475765    3.268104   -1.069877
H       1.712589    2.688766   -3.403000
H       0.541771    1.443413   -2.728097
H       0.348307    3.476997    1.178684
H       1.077184    2.685721    3.468986
H       1.945058    1.255102    2.701338
