19

C       0.113662    1.492273   -0.149945
C      -0.062429   -0.009924    0.050321
C      -1.539939   -0.403247    0.131008
O       0.530840   -0.693085   -1.083500
C       1.271196   -1.773967   -0.675155
N       1.759075   -2.652249   -1.434139
N       1.433685   -1.788793    0.742393
C       2.188065   -0.587319    1.193263
C       0.710973   -0.599726    1.227579
H       1.169215    1.756725   -0.245254
H      -0.407344    1.819899   -1.053966
H      -0.304299    2.037680    0.701706
H      -2.054970   -0.123185   -0.791665
H      -1.645002   -1.482640    0.273030
H      -2.028476    0.105032    0.968478
H       1.508235   -2.453296   -2.402341
H       2.751184   -0.738552    2.107891
H       2.691334   -0.000858    0.430198
H       0.184728   -0.709909    2.170731
