20

C       0.061286    1.542025   -0.013709
C      -0.060054    0.008612    0.000219
C      -1.550403   -0.396337    0.046474
C       0.622502   -0.561908   -1.259076
N       0.827181   -1.999159   -1.145346
C       1.376462   -2.568477   -0.019485
O       1.837476   -3.697026   -0.011815
C       1.303342   -1.717657    1.196551
C       0.639688   -0.559913    1.217315
H       1.108573    1.860371   -0.000812
H      -0.410363    1.960952   -0.909273
H      -0.435246    1.978805    0.858798
H      -2.100562    0.074839   -0.776019
H      -1.661144   -1.480206   -0.038040
H      -2.013028   -0.077772    0.985978
H       0.000275   -0.368617   -2.138905
H       1.579451   -0.038143   -1.412841
H       0.986229   -2.529374   -1.989802
H       1.778375   -2.136615    2.076191
H       0.547694    0.003479    2.144368
