23

C      -1.253618    0.517434    0.283607
O       0.091436    0.197510    0.006354
C       0.761460   -0.470473    1.067684
C       0.206585   -1.807886    1.321764
C      -0.248068   -2.903115    1.535819
C      -0.794404   -4.227741    1.794748
C       2.266775   -0.512861    0.715876
C       2.524811   -1.274424   -0.589798
C       2.843125    0.907970    0.667332
H      -1.339498    1.173823    1.164253
H      -1.643102    1.045541   -0.590086
H      -1.859194   -0.381782    0.461057
H       0.645931    0.126271    1.990498
H      -0.023646   -4.904412    2.179935
H      -1.602877   -4.191219    2.533212
H      -1.198833   -4.675059    0.880144
H       2.747242   -1.057556    1.538613
H       2.133320   -2.294078   -0.535269
H       2.041700   -0.770435   -1.431328
H       3.598660   -1.330770   -0.794062
H       2.701394    1.429726    1.620364
H       3.916740    0.881778    0.456438
H       2.354319    1.495252   -0.114705
