21

C       0.122762    1.585197    0.393533
C      -0.015699    0.116846    0.054450
C       1.149286   -0.642076   -0.535717
C       0.687567   -0.912567    0.884365
O      -1.299055   -0.282246   -0.354887
C      -1.693814    0.176342   -1.634213
C      -3.014427   -0.525531   -1.972519
C      -3.543279   -0.113490   -3.265386
C      -3.955453    0.245218   -4.335841
H       1.118480    1.794178    0.794532
H      -0.018370    2.222783   -0.485660
H      -0.618127    1.873239    1.146740
H       0.924974   -1.399201   -1.278635
H       2.088060   -0.120613   -0.689011
H       1.307432   -0.576186    1.708282
H       0.152014   -1.837708    1.062415
H      -1.842416    1.265176   -1.644796
H      -0.931721   -0.063974   -2.389098
H      -2.851097   -1.609544   -1.954303
H      -3.738125   -0.307593   -1.178111
H      -4.332049    0.553057   -5.279564
