21

C      -0.060215    1.528935    0.018356
C      -0.055953   -0.002296   -0.000503
C      -1.498888   -0.533019   -0.014546
C       0.715023   -0.494283   -1.234273
O       0.948154   -1.912338   -1.230954
C       1.381207   -2.504946   -0.077366
N       2.076392   -3.561850   -0.089903
C       0.876722   -1.910706    1.225068
N       0.633822   -0.468358    1.218398
H       0.959993    1.929146    0.049188
H      -0.552496    1.934565   -0.870813
H      -0.590815    1.888761    0.903988
H      -2.062642   -0.074613   -0.832655
H      -1.534908   -1.615519   -0.159188
H      -1.994887   -0.292301    0.929310
H       0.172152   -0.297120   -2.163510
H       1.685924    0.019346   -1.290095
H       2.272706   -3.839206   -1.054854
H      -0.059594   -2.427061    1.473102
H       1.586226   -2.162669    2.014595
H       1.525412    0.015261    1.286090
