13

N      -0.049992    1.206434    0.007212
C      -0.027763   -0.046623    0.000681
C      -1.281855   -0.962839    0.002792
C      -0.584638   -2.272353   -0.007721
C       0.743619   -2.109988   -0.014137
O       1.159908   -0.806030   -0.009731
N       1.410303   -3.301440   -0.023921
C       0.421845   -4.153918   -0.022696
O      -0.832243   -3.612421   -0.013287
H       0.893747    1.595929    0.004054
H      -1.889229   -0.756691    0.890448
H      -1.898829   -0.747624   -0.876047
H       0.476334   -5.230137   -0.028459
