20

O      -0.084615    1.431601    0.067259
C       0.012945    0.016276    0.009749
C       0.760451   -0.537651    1.233025
O       0.788496   -1.954409    1.233485
C      -0.516804   -2.507903    1.289724
C      -1.363105   -2.059618    0.112751
C      -1.446047   -2.940870   -1.079197
N      -2.609933   -2.777498   -0.182927
C      -1.407161   -0.549103   -0.020279
H       0.799496    1.799204   -0.031656
H       0.548272   -0.306650   -0.897109
H       1.805423   -0.209166    1.235938
H       0.275764   -0.149625    2.145112
H      -0.394136   -3.595789    1.296371
H      -1.010076   -2.210815    2.232619
H      -1.572812   -2.507180   -2.067518
H      -0.900613   -3.881061   -1.064373
H      -2.697741   -3.593644    0.420121
H      -1.965044   -0.120564    0.822957
H      -1.925352   -0.251062   -0.935528
