16

O      -0.075383    1.317595   -0.053420
N       0.042814   -0.082286   -0.071365
C      -1.097887   -0.640846    0.017554
C      -2.449226    0.002386    0.212375
C      -3.328559   -1.128347    0.778853
O      -4.365384   -0.974484    1.371064
C      -2.638527   -2.437824    0.537019
C      -2.236873   -2.702771   -0.901923
C      -1.224439   -2.123989    0.048497
H       0.844969    1.600112   -0.081619
H      -2.407745    0.847993    0.902817
H      -2.872576    0.388345   -0.723118
H      -2.874729   -3.273273    1.183098
H      -2.116185   -3.745332   -1.172522
H      -2.645096   -2.080037   -1.690433
H      -0.366992   -2.715505    0.341500
