17

C      -0.223455    1.559388    0.002407
C       0.057467    0.056920    0.025454
C       0.914251   -0.452967   -1.180583
N       1.678711   -1.624858   -0.672080
C       1.828947   -1.404857    0.700047
C       2.494142   -1.785601    1.816096
O       1.986898   -1.094311    2.882900
N       0.964115   -0.246451    2.453146
C       0.895675   -0.447648    1.168103
H       0.709302    2.131654    0.013635
H      -0.786381    1.837342   -0.894398
H      -0.809378    1.855007    0.876616
H      -0.896694   -0.486862    0.032099
H       0.298217   -0.742344   -2.035851
H       1.590161    0.354299   -1.501907
H       2.522589   -1.824489   -1.191641
H       3.299352   -2.463369    2.044213
