18

C       0.121428    1.559030    0.279395
C      -0.240393    0.116982   -0.098240
C       0.636890   -0.418759   -1.213354
N       2.031890   -0.743679   -0.899360
C       1.159187   -1.847265   -1.283781
C       0.828203   -2.844494   -0.219837
O       0.408915   -3.946338   -0.463145
C       0.395754    0.139030   -2.583172
O      -0.498859    0.888827   -2.873583
H       1.165172    1.622454    0.601798
H      -0.024330    2.235411   -0.566473
H      -0.509546    1.907507    1.101724
H      -0.150196   -0.524928    0.781203
H      -1.281142    0.065531   -0.433800
H       2.661565   -0.497985   -1.662165
H       1.249528   -2.285650   -2.276364
H       1.017737   -2.494816    0.816073
H       1.144125   -0.201473   -3.340732
