15

O      -0.121438   -0.034268    0.015248
C       0.001845    1.159068   -0.053661
C       1.330641    1.884785   -0.119687
C       1.383759    2.852707   -1.310564
N       2.558965    3.707852   -1.260132
N       2.747205    4.633411   -0.327345
C       3.932384    5.116472   -0.679553
N       4.440145    4.509820   -1.775632
N       3.554922    3.613273   -2.133775
H      -0.888760    1.830530   -0.062082
H       1.434288    2.473106    0.801747
H       2.140969    1.153525   -0.162777
H       1.444307    2.318854   -2.260171
H       0.500839    3.498974   -1.324969
H       4.430126    5.910176   -0.146730
