20

C      -0.146176    1.390618    0.118931
N      -0.228402   -0.048228    0.321283
C       0.712685   -0.645068    0.911620
O       1.859373   -0.076920    1.378042
C       2.614831   -1.026337    2.173668
C       2.402181   -0.738211    3.654880
C       2.103066   -2.406900    1.715690
C       0.671002   -2.123760    1.266315
O      -0.223953   -2.333209    2.355031
H       0.560710    1.893112    0.789193
H       0.155788    1.600119   -0.914887
H      -1.141017    1.826377    0.254667
H       3.663260   -0.870469    1.904330
H       1.363082   -0.934013    3.932010
H       3.048905   -1.383188    4.258769
H       2.645567    0.303411    3.881626
H       2.691556   -2.767641    0.867647
H       2.135902   -3.156986    2.507582
H       0.368070   -2.719806    0.397876
H      -1.044454   -1.883029    2.118177
