16

C      -0.072067    1.582937   -0.009613
C       0.039556    0.062273   -0.029008
O       0.834323   -0.370525   -1.116517
C       1.423988   -1.634278   -0.769277
C       1.800011   -1.506656    0.708673
C       0.789688   -0.489502    1.230783
O       0.603954   -0.128123    2.355972
C      -1.295341   -0.578626   -0.079267
N      -2.320293   -1.111586   -0.121578
H       0.931694    2.013820   -0.024299
H      -0.626719    1.938764   -0.879858
H      -0.584079    1.895803    0.902979
H       0.701091   -2.445224   -0.930191
H       2.273666   -1.781399   -1.436639
H       1.746916   -2.433798    1.282929
H       2.803440   -1.086563    0.837512
