19

C       0.257216    1.066934   -0.249044
O      -0.364461    0.003085    0.445834
C       0.488395   -0.645527    1.323827
C       0.228701   -2.093551    1.632312
C      -0.629481   -2.884144    0.646565
C       0.179220   -2.881699   -0.633792
C       1.337994   -2.234049   -0.498002
C       1.503041   -1.670544    0.871902
O       2.768460   -1.581128    1.449721
H       1.091023    0.708780   -0.868393
H      -0.501686    1.518027   -0.892523
H       0.640051    1.831365    0.443410
H       0.830245   -0.037766    2.164888
H       0.274101   -2.396557    2.671875
H      -0.829668   -3.901989    1.004083
H      -1.603979   -2.404753    0.492337
H      -0.192617   -3.317714   -1.554115
H       2.083733   -2.079919   -1.269498
H       3.116039   -2.476071    1.538981
