19

O       0.076251    1.367055    0.093367
C       0.047192   -0.044884    0.049270
C      -1.363041   -0.627722    0.015365
C      -1.242547   -0.903284   -1.489434
C       0.290005   -0.653976   -1.374874
C       0.934016   -2.047116   -1.290715
C      -0.091509   -2.884845   -0.480693
C      -1.373235   -2.050285   -0.541156
O      -2.604608   -2.704757   -0.514102
H      -0.577059    1.689060   -0.539027
H       0.728682   -0.370761    0.843377
H      -2.218766   -0.261634    0.573585
H      -1.923293   -0.697186   -2.304418
H       0.763742    0.039381   -2.070552
H       1.055030   -2.465887   -2.295129
H       1.923915   -2.014851   -0.824986
H      -0.278459   -3.861398   -0.936390
H       0.237783   -3.062243    0.549447
H      -2.772742   -2.989027    0.390834
