21

O      -0.023146    1.393483   -0.274438
C       0.043100    0.007637    0.034905
C      -1.347576   -0.579356   -0.163323
C      -1.409803   -2.079380    0.159727
O      -0.976169   -2.340686    1.489539
C      -2.803909   -2.651013   -0.038052
O      -3.720407   -2.170797    0.922887
C      -3.320049   -3.003037   -1.405582
C      -2.987325   -4.089805   -0.398479
H       0.833867    1.783149   -0.079242
H       0.760874   -0.512120   -0.621969
H       0.362907   -0.163942    1.071201
H      -2.044829   -0.030883    0.483671
H      -1.665078   -0.410244   -1.199389
H      -0.714306   -2.615104   -0.499309
H      -1.752947   -2.197347    2.046177
H      -3.981070   -1.278626    0.667241
H      -4.369635   -2.813147   -1.601379
H      -2.665558   -2.866307   -2.260261
H      -2.102842   -4.696079   -0.558165
H      -3.819521   -4.603701    0.067915
