17

C      -0.003372    1.455628    0.032847
O      -0.041131    0.041854    0.018712
C       0.577160   -0.546325   -1.030232
C       1.242495    0.005229   -2.108679
N       1.659548   -1.059585   -2.852970
N       1.303541   -2.242728   -2.337148
C       0.639599   -1.950647   -1.217354
C       0.132706   -3.031839   -0.315650
O       1.075837   -3.404722    0.687138
H       1.030779    1.824976    0.069590
H      -0.499757    1.876440   -0.852754
H      -0.533436    1.776301    0.930813
H       1.444461    1.021766   -2.399837
H       2.161930   -1.036080   -3.723142
H      -0.749742   -2.681515    0.226322
H      -0.159460   -3.896444   -0.928056
H       1.883259   -3.655658    0.225869
