17

O       0.242422    0.509917    1.797572
C       0.057834    1.395377    0.992735
N       1.036852    1.974856    0.237344
C       2.369405    1.434490    0.208932
C       3.478993    1.874427   -0.682345
C       3.779928    3.387977   -0.638356
C       2.988200    4.213598    0.307391
N       4.074211    3.364064    0.833188
C       3.664278    1.910738    0.836413
H      -0.937050    1.838187    0.787420
H       0.753309    2.583601   -0.514841
H       2.336940    0.350803    0.311114
H       3.934661    1.229007   -1.422799
H       4.491728    3.831871   -1.326739
H       3.255741    5.266610    0.349193
H       1.962098    3.998173    0.564877
H       4.223514    1.257989    1.494746
