18

C       0.174385    1.464622   -0.091117
C       0.081145   -0.038670   -0.039311
C       0.158000   -0.820489   -1.191786
C       0.067977   -2.207899   -1.101996
C       0.123196   -3.079351   -2.338166
O       0.997032   -2.582981   -3.340300
C      -0.085287   -2.761262    0.170553
N      -0.165708   -2.042166    1.290403
C      -0.085502   -0.715478    1.172081
H       1.135881    1.791189   -0.502817
H      -0.608755    1.891413   -0.727218
H       0.071823    1.901905    0.905619
H       0.296133   -0.360061   -2.165919
H       0.377155   -4.111169   -2.050869
H      -0.863201   -3.118584   -2.815604
H       1.880596   -2.537778   -2.959331
H      -0.143121   -3.842470    0.288880
H      -0.152206   -0.148483    2.099239
