19

C       0.226702    1.435428    0.204705
C       0.050278   -0.054887   -0.076732
C       0.691504   -0.509530   -1.374902
O       1.312480    0.241368   -2.096119
C       0.507665   -1.976103   -1.746441
N       1.182303   -2.272054   -2.986244
C       1.857028   -3.469633   -3.111213
N       2.679697   -3.532208   -4.226481
O       1.755481   -4.382639   -2.311534
H       1.285735    1.700103    0.253139
H      -0.223771    2.039188   -0.587213
H      -0.242325    1.704986    1.154692
H       0.475847   -0.665473    0.731758
H      -1.012039   -0.332472   -0.109852
H       0.890245   -2.622930   -0.947218
H      -0.572658   -2.178999   -1.804993
H       1.585403   -1.448291   -3.416254
H       2.417305   -2.986173   -5.033063
H       2.978700   -4.471367   -4.439414
