16

O       0.009132    0.027687    0.062916
C      -0.015129    1.226077    0.035013
C      -1.265850    2.136090    0.017334
C      -0.609648    3.535206    0.007422
C       0.608765    3.304097   -0.914961
C       1.194940    2.186076   -0.018638
C       1.166724    2.880854    1.367186
O       1.878363    2.686282    2.320218
N       0.095308    3.748704    1.279618
H      -1.852078    1.938542   -0.886461
H      -1.905308    1.948424    0.883312
H      -1.264132    4.369093   -0.242257
H       0.331776    2.962278   -1.915461
H       1.254681    4.180972   -0.986000
H       2.140751    1.711991   -0.261890
H      -0.357818    4.080560    2.117588
