16

N       0.015092    1.240248    0.674477
C       0.109530   -0.035757    0.161916
N       1.136943   -0.677470   -0.239518
C       2.430408   -0.021423   -0.228054
C       3.124001   -0.176535    1.145425
C       4.540340    0.348294    1.099240
O       4.948146    1.277179    1.747295
C      -1.164743   -0.735447    0.133416
N      -2.195041   -1.258146    0.112304
H       0.794514    1.865462    0.547340
H      -0.892307    1.677665    0.687130
H       3.048565   -0.499655   -0.995386
H       2.378832    1.048182   -0.494080
H       2.575422    0.349327    1.931095
H       3.148537   -1.246215    1.388789
H       5.207804   -0.189966    0.386186
