20

C       0.169293    1.474477   -0.176973
C      -0.185735    0.015799   -0.411586
O       0.893045   -0.591207   -1.106985
C       0.839732   -2.002921   -1.255082
C      -0.485271   -2.521668   -1.842339
O      -0.874604   -1.864197   -3.027770
C       2.033414   -2.320026   -2.159355
O       1.922947   -1.630479   -3.403449
H       1.081506    1.560917    0.420275
H       0.332940    1.986447   -1.129834
H      -0.643025    1.982727    0.350974
H      -0.350048   -0.498745    0.548993
H      -1.108142   -0.064699   -1.001222
H       0.988700   -2.497791   -0.278347
H      -0.374634   -3.611030   -1.985098
H      -1.298807   -2.383837   -1.122232
H      -0.085170   -1.826206   -3.587013
H       2.965069   -2.043797   -1.646464
H       2.070041   -3.388856   -2.388681
H       1.805873   -0.702221   -3.160106
