21

C      -0.976608    1.462579    0.090165
O      -1.382198    0.123237   -0.061893
C      -0.277001   -0.753599   -0.193588
C      -0.730483   -2.126896   -0.351215
C      -1.077468   -3.273891   -0.483894
C      -1.501630   -4.630817   -0.657784
C      -1.040112   -5.711542    0.315168
C      -2.476905   -5.283816    0.321468
C      -3.058123   -4.509173    1.480325
H      -1.881950    2.066754    0.182373
H      -0.359727    1.605903    0.992308
H      -0.398144    1.818366   -0.777929
H       0.338674   -0.461350   -1.062966
H       0.378960   -0.672939    0.691619
H      -1.602342   -4.945240   -1.692828
H      -0.774567   -6.676660   -0.101717
H      -0.413750   -5.385294    1.138100
H      -3.170653   -5.971729   -0.154875
H      -2.333571   -3.794825    1.880025
H      -3.943209   -3.942663    1.172475
H      -3.354267   -5.185797    2.289343
