19

C       0.066865    1.512807   -0.072772
C       0.014024   -0.001247    0.154120
C      -1.395591   -0.569136    0.034700
C      -2.101436   -0.581494   -1.375809
C      -2.269070   -2.101896   -1.234007
N      -0.894147   -2.658594   -1.092646
C      -1.563508   -2.096307    0.091786
C      -3.357117   -2.906951   -1.676457
N      -4.247165   -3.552120   -2.040836
H       1.090625    1.888690    0.014044
H      -0.299799    1.779271   -1.070002
H      -0.547884    2.048358    0.659355
H       0.661310   -0.514598   -0.564788
H       0.406114   -0.237077    1.152249
H      -2.060583   -0.098231    0.766005
H      -3.049300   -0.042539   -1.384647
H      -1.492572   -0.281672   -2.231242
H      -0.975271   -3.674434   -1.042772
H      -1.760445   -2.712762    0.960700
