23

C      -0.065350    1.608228    0.216254
C       0.011123    0.082591    0.046239
C       0.768231   -0.563846    1.215819
C      -1.397628   -0.506236   -0.068419
O       0.620716   -0.250765   -1.217843
C       1.985407   -0.001357   -1.388178
C       2.993242   -1.156323   -1.151717
O       3.520980   -1.002703   -2.484912
C       2.448440   -0.109635   -2.851816
H       0.924850    2.062303    0.318311
H      -0.564140    2.058895   -0.646455
H      -0.633766    1.862994    1.116059
H       0.247899   -0.369677    2.158737
H       0.834731   -1.647282    1.079907
H       1.782263   -0.163353    1.311303
H      -1.920538   -0.070760   -0.924390
H      -1.345526   -1.588433   -0.215694
H      -1.978933   -0.302901    0.835620
H       2.299324    0.933932   -0.912023
H       3.764553   -1.019437   -0.384883
H       2.496961   -2.125726   -1.010119
H       1.696671   -0.597200   -3.486202
H       2.813769    0.799245   -3.341998
