14

O      -0.200864    1.447808    0.048045
C      -0.027427    0.104855    0.015117
C      -1.045515   -1.005267   -0.035047
C      -0.451325   -1.612687   -1.300335
C       0.874335   -0.924505   -0.867104
O       1.254069   -1.620594    0.345923
C       0.137725   -1.013414    0.987943
C       1.952806   -0.631984   -1.770057
N       2.795875   -0.346581   -2.508152
H       0.578085    1.859149    0.443582
H      -2.076715   -0.974811    0.289449
H      -0.392983   -2.699627   -1.397769
H      -0.865454   -1.156307   -2.201199
H       0.029851   -1.102605    2.059659
