21

C      -0.020061    1.543920   -0.240070
C      -0.074164    0.044633    0.081667
C       0.695182   -0.330481    1.309301
O       0.349793   -1.547689    1.994149
C       0.382913   -0.316984    2.737357
C       1.855479    0.031151    3.105678
C       2.868103   -0.954991    2.574957
C       2.828771   -2.481394    2.610560
C       2.196406   -0.001702    1.611564
H       1.005901    1.880730   -0.418526
H      -0.601888    1.766113   -1.139196
H      -0.428804    2.138905    0.582809
H      -1.111146   -0.276867    0.227773
H       0.315027   -0.530334   -0.769807
H      -0.510966   -0.038864    3.283880
H       2.104291    0.801159    3.825307
H       3.865131   -0.568580    2.786417
H       2.070147   -2.857306    3.297682
H       2.612017   -2.904357    1.627304
H       3.801504   -2.866491    2.935040
H       2.755214    0.735592    1.048380
