19

C      -0.260347    1.552383   -0.033370
C       0.094781    0.055186    0.036577
C       0.788439   -0.449266   -1.199882
C       2.088271   -0.773957   -1.227231
C       2.744129   -1.381700   -2.404034
O       3.828992   -1.903022   -2.364313
O       2.040503   -1.392224   -3.571753
C       0.901265   -0.530824   -3.677166
C      -0.014785   -0.627280   -2.464708
H       0.642043    2.161321   -0.141607
H      -0.920487    1.776070   -0.877199
H      -0.774493    1.864579    0.880120
H       0.730309   -0.126866    0.909042
H      -0.827109   -0.523063    0.187739
H       2.720844   -0.701737   -0.349329
H       1.248670    0.504019   -3.798424
H       0.392992   -0.831112   -4.596049
H      -0.524038   -1.601077   -2.439428
H      -0.801090    0.131208   -2.545945
