21

C      -0.137949    1.589797   -0.009126
C       0.017899    0.076438    0.011450
C       1.178989   -0.636214   -0.763673
C       2.154361   -0.174306    0.365445
C       0.864285   -0.645261    1.127731
C       0.621323   -0.674435    2.611249
C       0.884914   -1.831957    0.147377
C       0.192344   -3.104863    0.031560
O       1.622902   -3.020833    0.274079
H       0.800885    2.129539    0.134291
H      -0.562116    1.915091   -0.965393
H      -0.828562    1.912307    0.778164
H      -0.959925   -0.393958   -0.150510
H       1.357047   -0.639835   -1.838846
H       3.045866   -0.787704    0.511691
H       2.397471    0.887533    0.411133
H       0.707676    0.325717    3.049115
H      -0.381214   -1.053887    2.839181
H       1.348283   -1.324055    3.110290
H      -0.389370   -3.496513    0.865084
H      -0.082964   -3.496420   -0.946771
