18

C       0.021090    1.562985   -0.032087
C       0.023007    0.057211   -0.060009
C       0.419404   -0.835448   -1.235713
N      -0.330519   -1.957050   -0.549969
C       0.564952   -2.149466    0.641525
C       0.423019   -0.746032    1.270191
C      -1.087623   -0.784590    1.534629
O      -1.809368   -0.547323    2.459002
C      -1.267649   -0.874276    0.029346
H       1.043901    1.955245   -0.002696
H      -0.469519    1.974256   -0.920352
H      -0.505242    1.942890    0.850215
H      -0.094473   -0.555319   -2.159491
H       1.473455   -1.041706   -1.450302
H       0.189900   -2.950502    1.285367
H       1.575115   -2.404956    0.314768
H       1.142344   -0.377582    1.997728
H      -2.196705   -0.731928   -0.516710
