23

C      -0.142865    1.611926   -0.054001
C      -0.030737    0.086623   -0.034285
C       0.735267   -0.470745    1.184061
O      -0.036139   -0.083619    2.333693
C       0.862519   -2.017630    1.130308
C      -0.471724   -2.768162    1.128627
C       2.087596    0.104258    1.268558
C       3.206540    0.539294    1.374873
C       4.553977    1.079146    1.492398
H       0.843625    2.079833   -0.120794
H      -0.735319    1.943217   -0.912311
H      -0.626705    1.970464    0.857676
H      -1.033246   -0.352370   -0.016274
H       0.464609   -0.273482   -0.942947
H       0.529019   -0.184591    3.106763
H       1.460125   -2.285878    0.251361
H       1.452773   -2.322951    2.003181
H      -1.106711   -2.421532    1.948108
H      -1.020818   -2.630974    0.192584
H      -0.303094   -3.842016    1.254319
H       5.192532    0.433796    2.105619
H       5.027414    1.174203    0.508945
H       4.545488    2.073454    1.952299
