21

C      -0.030919    1.526564    0.088960
C       0.025036    0.018263    0.078775
C       0.830161   -0.794546   -0.991262
C       0.699417   -1.939005    0.053383
C       0.810301   -0.826457    1.135769
C      -0.817428   -2.215197    0.041055
C      -1.296695   -0.751594    0.043504
C      -2.589669   -0.267959    0.526496
O      -2.303546   -0.340427   -0.880175
H       0.967773    1.960075   -0.021504
H      -0.656158    1.891332   -0.732712
H      -0.453266    1.904607    1.027025
H       0.376543   -0.933684   -1.976797
H       1.855509   -0.429905   -1.091545
H       1.364277   -2.802258    0.046801
H       1.832496   -0.463282    1.269013
H       0.341932   -0.999938    2.110231
H      -1.157226   -2.736080   -0.858689
H      -1.154265   -2.776684    0.917946
H      -3.331385   -0.980580    0.886851
H      -2.689523    0.739932    0.927085
