19

O       0.529539    0.167713   -0.866580
C      -0.207254   -0.442262    0.158677
C       0.142259   -0.163724    1.647941
C      -1.368126   -0.210930    1.966115
C      -1.664011    0.016037    0.452375
O      -1.696601   -1.509475    2.421605
C      -3.074661   -1.660859    2.709419
C      -3.337458   -3.015492    3.176792
C      -3.581903   -4.125556    3.563622
H       0.526485    1.118737   -0.713899
H      -0.175202   -1.513974   -0.049871
H       0.772428   -0.877783    2.180887
H       0.543515    0.847001    1.777877
H      -1.760644    0.543045    2.662359
H      -1.795554    1.081292    0.231055
H      -2.485019   -0.543616   -0.001938
H      -3.384388   -0.934457    3.480494
H      -3.689243   -1.453853    1.818276
H      -3.790980   -5.108975    3.905521
