18

C      -0.388557    1.008768   -0.159597
O       0.582813    0.006221    0.094913
C       1.004440   -0.643438   -1.049981
C       1.629452   -1.983015   -0.951756
C       0.993664   -2.809224    0.171849
C      -0.410103   -2.638820   -0.484766
C       0.223495   -1.818693   -1.625046
C      -0.139398   -1.888109   -2.999498
N      -0.439773   -1.942209   -4.117297
H       0.010191    1.791897   -0.819915
H      -1.290485    0.586754   -0.622888
H      -0.648882    1.451242    0.803723
H       1.423871    0.009152   -1.817873
H       2.571060   -2.201210   -1.440836
H       1.328705   -3.847242    0.163908
H       1.115417   -2.396380    1.174762
H      -0.825506   -3.582335   -0.839671
H      -1.165090   -2.109343    0.100208
