16

C       0.018397    1.577386    0.064750
C       0.088762    0.067740    0.055583
C       1.326974   -0.743365   -0.276999
C       2.517977   -0.137016    0.395276
N       3.678556    0.153410    0.032198
O       1.910134   -0.042100    1.649996
C       0.745879   -0.730544    1.151530
C       0.140164   -1.828056    1.918540
O       0.486280   -2.177384    3.017409
H       0.902182    2.014788    0.532489
H      -0.056606    1.959810   -0.957442
H      -0.862060    1.913501    0.620709
H      -0.804500   -0.427145   -0.324360
H       1.345302   -1.537185   -1.010006
H       4.231757    0.523632    0.806798
H      -0.698078   -2.318299    1.372783
