15

C      -0.005971    1.577967   -0.052983
C       0.050247    0.068711    0.069086
O       0.839635   -0.493031   -0.995719
C       1.422236   -1.649718   -0.484715
O       1.609445   -1.451222    0.912115
C       0.762678   -0.439807    1.308521
N       0.618785   -0.014292    2.480258
C       0.566366   -2.849718   -0.702738
N      -0.090757   -3.779050   -0.896698
H       1.002984    1.996841   -0.073232
H      -0.532117    1.868134   -0.965305
H      -0.535962    1.982530    0.812336
H      -0.961797   -0.361520    0.039724
H       2.395217   -1.807336   -0.957637
H       1.195175   -0.529777    3.146099
