25

C       0.053638    1.573255   -0.060723
C       0.007103    0.043583   -0.035419
C      -1.420125   -0.512619    0.008330
C      -1.477709   -2.037095   -0.001130
C      -2.889315   -2.637223    0.040094
C      -2.722324   -3.956413   -0.729843
C      -4.008640   -4.561006   -1.285951
C      -1.705791   -3.532302   -1.799740
O      -0.877925   -2.537974   -1.208588
H       1.084251    1.940812   -0.091217
H      -0.466413    1.970715   -0.939694
H      -0.426158    2.002305    0.826585
H       0.512127   -0.362031   -0.918547
H       0.565014   -0.326841    0.835169
H      -1.933737   -0.150710    0.910123
H      -1.990705   -0.138495   -0.852382
H      -0.889393   -2.419518    0.850053
H      -3.257749   -2.772820    1.060452
H      -3.594767   -1.981695   -0.487481
H      -2.239008   -4.685957   -0.066731
H      -4.522711   -3.850814   -1.943799
H      -3.804923   -5.467053   -1.866843
H      -4.700239   -4.832901   -0.482127
H      -1.074691   -4.359913   -2.144187
H      -2.225927   -3.118766   -2.679755
