15

C      -0.039477    1.429284    0.053156
N      -0.029228   -0.019082    0.056490
C       0.529837   -0.619677   -0.920957
N       1.152803   -0.007089   -2.028699
C       1.737665   -0.699132   -3.050449
N       1.791048   -1.983693   -3.125947
C       1.204226   -2.675857   -2.080591
C       0.605747   -2.067649   -1.033650
F       0.054939   -2.765688   -0.051709
H       0.974740    1.864900    0.062010
H      -0.571856    1.852093   -0.816508
H      -0.551115    1.789604    0.948587
H       1.161361    1.001269   -2.058300
H       2.177017   -0.087469   -3.834391
H       1.241146   -3.758758   -2.129899
