17

N      -0.110359    1.341090   -0.107495
C       0.870847    2.320717   -0.139474
C       2.186996    2.287524   -0.444540
C       3.158817    1.268155   -0.711138
C       3.483663    0.110798   -0.076066
C       2.965820   -0.515966    1.100420
C       1.708650   -0.780069    1.552725
N       0.495332   -0.770440    0.953813
C      -0.205310    0.011472    0.238130
H      -1.013140    1.705287   -0.374683
H       0.426237    3.306714   -0.037497
H       2.587274    3.291942   -0.581523
H       3.876199    1.577460   -1.470771
H       4.411003   -0.340704   -0.428990
H       3.740376   -0.960406    1.724499
H       1.668698   -1.315414    2.502460
H      -1.155824   -0.389317   -0.123308
