22

C      -0.146327    1.029827   -1.935755
C      -0.033737   -0.176715   -1.029947
C       1.244551   -0.632803   -0.390243
C       2.577841    0.058467   -0.573614
C       0.127909   -0.058745    0.490915
C       0.284299    1.299103    1.149789
C      -0.630859   -1.121779    1.246980
N      -1.112541   -0.772557    2.477989
O      -0.798802   -2.245769    0.800060
H       0.537742    1.839177   -1.669626
H       0.076369    0.745603   -2.970246
H      -1.162683    1.438725   -1.920573
H      -0.693138   -0.994704   -1.305390
H       1.318425   -1.712333   -0.297505
H       2.491736    1.139375   -0.707687
H       3.233421   -0.117039    0.286462
H       3.087242   -0.337134   -1.459360
H       0.864053    1.989286    0.536059
H      -0.687690    1.777309    1.323919
H       0.802863    1.219334    2.112456
H      -1.095094    0.168848    2.824289
H      -1.682700   -1.451473    2.954677
