16

N       0.002114   -1.127278   -0.105683
C      -0.011603    0.028763   -0.054004
C      -0.034114    1.467150    0.006303
C       0.495476    2.216608   -1.226991
C       1.305181    2.194734    0.030097
O       1.377003    3.378306    0.756345
C       0.648047    3.397340    1.981198
C      -0.776198    2.936355    1.811428
C      -1.101930    2.059716    0.865677
H       0.820075    1.618403   -2.070333
H      -0.005557    3.147612   -1.463205
H       2.206976    1.587056    0.063297
H       1.158579    2.790019    2.746935
H       0.681607    4.437119    2.318486
H      -1.525895    3.352386    2.477074
H      -2.122191    1.725726    0.709403
