15

C      -0.024004    1.418734    0.055479
C       0.054926   -0.085360   -0.046330
O       1.102937   -0.680110   -0.170970
C      -1.244809   -0.906606   -0.003155
O      -0.962028   -2.260454   -0.163325
C      -2.003320   -0.667993    1.329647
C      -3.277243   -1.380492    1.364252
N      -4.296513   -1.923163    1.390021
H       0.903240    1.859198   -0.312870
H      -0.879470    1.815314   -0.499251
H      -0.150710    1.710876    1.104917
H      -1.885650   -0.547163   -0.825323
H       0.006664   -2.315191   -0.227040
H      -1.378219   -1.015336    2.159461
H      -2.201280    0.398851    1.478973
