16

O      -0.015372    1.371793    0.103053
C       0.050407    0.004462   -0.005402
C      -0.909896   -0.913632    0.762843
O      -1.062023   -2.123707    0.020904
C       0.375495   -2.038029   -0.230188
C       0.560301   -1.055903    0.989850
C       0.485757   -0.840153   -1.183530
C       0.310625   -0.703392   -2.633459
N       1.662224   -0.597734   -2.005705
H       0.880770    1.721712    0.168699
H      -1.716507   -0.555616    1.389395
H       0.867830   -2.988874   -0.416655
H       1.201751   -1.028400    1.859277
H       0.169526   -1.580081   -3.259056
H      -0.154238    0.205458   -3.006807
H       1.930708    0.384118   -1.953430
