23

C      -0.529434    1.520526   -0.400818
C       0.094031    0.165282   -0.040165
C       0.848285   -0.516691   -1.164713
C       0.070336   -1.239411   -2.261728
C       0.909072   -2.013779   -1.274699
O       2.186415   -2.447954   -1.658073
C       2.878098   -1.321673   -2.186376
C       2.257583   -0.051325   -1.552836
C       2.368114    1.159853   -2.483104
H       0.231464    2.271346   -0.632713
H      -1.184133    1.430697   -1.273937
H      -1.128465    1.905681    0.430535
H       0.767270    0.287367    0.819297
H      -0.705375   -0.506832    0.297257
H      -1.007722   -1.292789   -2.146041
H       0.400074   -1.171842   -3.293070
H       0.448382   -2.686110   -0.559500
H       3.942048   -1.439937   -1.960732
H       2.771905   -1.286976   -3.281655
H       2.786430    0.171908   -0.616357
H       1.770736    1.014059   -3.389475
H       2.025353    2.078421   -2.000202
H       3.407812    1.320170   -2.790721
