12

N      -0.040864    1.362200   -0.107391
C       0.028601    0.003480   -0.043879
N      -1.146376   -0.654710   -0.023796
C      -1.076287   -1.978919   -0.001142
N       0.020344   -2.740972    0.009116
C       1.151775   -2.060681   -0.007550
F       2.266181   -2.779195    0.004163
C       1.252372   -0.684350   -0.034724
H       0.768227    1.913410    0.120868
H      -0.943811    1.769880    0.073126
H      -2.025630   -2.509092    0.014012
H       2.212377   -0.185115   -0.051810
