16

C      -0.019273    1.432952   -0.003746
N      -0.006049   -0.025941    0.012498
N      -0.036273   -0.618313   -1.194795
N      -0.027318   -1.892128   -1.268483
C       0.013053   -2.634914   -0.113093
C       0.045339   -2.117374    1.142587
C       0.089232   -2.925530    2.399746
C       0.036221   -0.671759    1.263449
O       0.060799   -0.024183    2.296261
H       0.875869    1.815878    0.491481
H      -0.051899    1.746865   -1.045449
H      -0.891132    1.800492    0.542112
H       0.017481   -3.707631   -0.281552
H       0.092670   -3.996652    2.186588
H       0.979656   -2.672442    2.985019
H      -0.770053   -2.688236    3.035972
