18

O       0.029368    1.404127   -0.083688
C      -0.008228   -0.001387    0.036282
C       0.275778   -0.681055    1.385877
O       1.504688   -1.235696    1.702987
C      -0.766759   -0.352517    2.411414
C      -1.091827   -1.370788    1.336841
C      -1.418389   -0.613964    0.067731
C      -2.669948    0.032725   -0.373030
N      -2.138102   -1.162565   -1.071151
H       0.944303    1.675198   -0.209344
H       0.602341   -0.490094   -0.738243
H       1.923521   -0.685348    2.372594
H      -0.570837   -0.779403    3.390594
H      -1.259854    0.616076    2.420154
H      -1.353968   -2.397680    1.553375
H      -3.593840   -0.134941    0.173828
H      -2.586977    1.000836   -0.859027
H      -1.684783   -0.884345   -1.939237
