20

C       0.840973   -0.492395    1.281241
C       0.064723   -0.030685    0.042129
C      -1.357785   -0.592002   -0.014877
O      -2.094337   -0.088480    1.090529
C      -2.118901   -0.685013   -1.389775
C      -1.212287   -1.902782   -1.735808
C      -1.629646   -2.109952   -0.250516
C      -3.070605   -1.710899   -0.702040
H       1.817504   -0.002350    1.340371
H       0.283895   -0.265198    2.193733
H       1.011297   -1.573869    1.256329
H      -0.013788    1.067242    0.046803
H       0.626858   -0.276419   -0.861692
H      -2.003221    0.869977    1.093811
H      -2.396853    0.139694   -2.049953
H      -1.644173   -2.616850   -2.440426
H      -0.160352   -1.728069   -1.961655
H      -1.348283   -2.933491    0.407807
H      -3.740401   -1.329429    0.064391
H      -3.565884   -2.417356   -1.372559
