20

C       0.099817    1.546547   -0.004682
C       0.012674    0.023987    0.096675
O       0.616089   -0.453316    1.287797
C      -1.442240   -0.542080   -0.052604
N      -2.156239   -0.110831   -1.260962
C      -1.399734   -2.104897   -0.066975
N      -2.684731   -2.775859   -0.072688
C      -2.211917   -0.103783    1.125443
N      -2.755275    0.244185    2.085158
H       1.138403    1.857561    0.132093
H      -0.238924    1.911862   -0.978229
H      -0.507836    2.026672    0.771382
H       0.595240   -0.428567   -0.716204
H       0.184554   -0.019673    2.034603
H      -2.321695    0.890147   -1.256151
H      -1.585669   -0.320111   -2.076133
H      -0.848324   -2.381568   -0.976401
H      -0.804477   -2.442633    0.782908
H      -3.143958   -2.660609    0.826004
H      -3.286146   -2.336292   -0.764503
