16

N       0.098288   -1.132414   -0.398336
C       0.044118   -0.001153   -0.164926
C      -0.012640    1.431425    0.085889
C      -0.458095    2.306613   -1.135768
C       0.933739    3.008586   -1.158182
C       1.349317    2.255859    0.130538
N       1.282916    3.063345    1.347893
C       0.192926    2.758588    1.937502
N      -0.581664    1.744984    1.391382
H      -0.710393    1.735383   -2.030458
H      -1.298046    2.959225   -0.887113
H       1.537177    2.747999   -2.030332
H       0.921268    4.093713   -1.045436
H       2.279433    1.686177    0.087445
H      -0.135001    3.217604    2.865725
H      -1.580898    1.724623    1.530525
