16

C      -0.019294    1.609566    0.050652
C       0.115281    0.093961   -0.076224
C       0.469317   -0.746114   -1.273648
C       1.790192   -0.355496   -1.966685
C       2.574317    0.743051   -1.355008
N       2.596871   -0.586887   -0.718196
C       1.290036   -0.863094   -0.002410
H       0.161918    2.128760   -0.892880
H      -1.040080    1.856741    0.358845
H       0.654579    2.024736    0.807487
H      -0.693623   -0.409222    0.454962
H      -0.209076   -1.462995   -1.718619
H       2.093227   -0.818130   -2.900850
H       3.524531    0.968441   -1.833607
H       2.121793    1.586318   -0.857292
H       1.325202   -1.652579    0.738507
