15

C      -0.157957    1.387766   -0.761753
N       0.209642    0.033213   -1.125322
C       0.923099   -0.762202   -0.298010
O       1.333186   -0.468451    0.806681
C       1.225538   -2.181950   -0.854362
O       1.856407   -2.959717   -0.184910
C       0.736801   -2.641253   -2.262560
N       1.115604   -3.903522   -2.523694
O       0.091268   -1.934592   -3.024672
H       0.236910    1.589395    0.234286
H       0.262414    2.110339   -1.469699
H      -1.246781    1.507413   -0.749337
H      -0.060575   -0.360198   -2.022333
H       1.647888   -4.404843   -1.830088
H       0.868122   -4.329615   -3.400976
