18

C       0.173921    1.568414   -0.179856
C      -0.014099    0.074659    0.063481
O       0.483415   -0.671952   -1.068866
C       1.441454   -1.620887   -0.667447
C       1.589697   -1.454253    0.823738
N       2.503438   -2.197850    1.501073
C       0.742953   -0.480709    1.249640
C       0.525341   -0.058980    2.609545
O      -0.263882    0.799444    2.963406
H       1.236523    1.811940   -0.276766
H      -0.338620    1.867108   -1.098901
H      -0.243187    2.128191    0.660893
H      -1.090497   -0.132518    0.160251
H       1.112133   -2.645602   -0.915042
H       2.399979   -1.456057   -1.185975
H       2.842808   -3.045100    1.076206
H       2.486731   -2.203019    2.507833
H       1.141221   -0.591846    3.374943
