17

C      -0.083230    1.575128    0.047600
C       0.018689    0.039447    0.041665
C       0.817330   -0.525637   -1.135528
C       1.855073   -1.281885   -0.722839
C       1.862499   -1.307112    0.743218
C       0.810856   -0.550847    1.162670
O       0.725561   -0.499297    2.507254
C       1.774422   -1.262722    2.963559
C       2.503242   -1.782038    1.933165
H       0.912511    2.026948    0.048004
H      -0.622195    1.929551   -0.836218
H      -0.619399    1.922755    0.935567
H      -0.998825   -0.378659    0.018749
H       0.548085   -0.312106   -2.161942
H       2.564209   -1.788438   -1.364948
H       1.857810   -1.332487    4.035324
H       3.372450   -2.413322    2.033706
