18

C       0.116956    1.551059   -0.042426
C       0.090460    0.042810    0.071013
C       1.320018   -0.822659   -0.136720
O       2.574158   -0.220647   -0.379518
C       3.188199    0.380147    0.670529
N       2.802968    0.530260    1.863138
C       1.519488   -0.012795    2.292880
C       0.692934   -0.716958    1.226572
O      -0.099361   -1.781912    1.677618
H       1.010175    1.989582    0.407812
H       0.088207    1.859451   -1.092438
H      -0.754514    1.985926    0.457319
H      -0.814724   -0.426805   -0.304858
H       1.224018   -1.741870   -0.702903
H       4.147713    0.776709    0.344649
H       1.720176   -0.742183    3.088781
H       0.949571    0.793678    2.772607
H       0.485422   -2.467524    2.021627
