18

O       0.014846    0.036942   -0.495022
C      -0.016564    1.162372   -0.092612
C      -1.147120    2.115470    0.326885
C      -0.060846    3.128993    0.799530
C      -0.053031    4.635972    0.441947
N       0.145644    5.046777    1.877922
C      -1.037852    4.537927    2.592962
C       0.030741    3.578009    2.253959
C       1.063956    2.202784    0.247298
H      -1.747486    2.457876   -0.523274
H      -1.825221    1.728579    1.093779
H       0.808963    4.937814   -0.157879
H      -0.965363    5.045396   -0.007008
H      -1.093687    4.885230    3.620090
H      -1.994404    4.496649    2.074225
H       0.674992    3.129596    3.005373
H       1.821481    1.868271    0.963008
H       1.578364    2.587599   -0.640192
