16

C      -0.023516    1.535238   -0.004807
C       1.403484    2.084387    0.038925
O       2.116607    1.691173    1.225482
C       1.959009    0.397957    1.546643
N       2.719034   -0.174392    2.448454
O       2.225124   -1.482671    2.527496
C       1.201646   -1.626886    1.670831
C       0.964435   -0.472073    1.001577
C      -0.019612   -0.006603   -0.027870
H      -0.566446    1.895836    0.876158
H      -0.528912    1.936102   -0.888874
H       1.971063    1.749736   -0.840937
H       1.410369    3.175822    0.055915
H       0.740515   -2.602980    1.652965
H      -1.023405   -0.398836    0.163397
H       0.268365   -0.357850   -1.027354
