16

C      -0.288822    1.428183   -0.039896
N       0.054577    0.006225   -0.007360
C       0.185789   -0.622063    1.215342
N      -0.022019    0.000182    2.306845
C       0.021282   -0.747134   -1.161941
C      -0.425327   -1.990523   -1.484941
N      -0.105062   -2.256833   -2.812207
C       0.479421   -1.183914   -3.222560
O       0.610843   -0.213487   -2.278492
H      -0.106808    1.812360   -1.042784
H      -1.338413    1.584607    0.232922
H       0.331888    1.957835    0.683547
H       0.494391   -1.667063    1.110217
H       0.169442   -0.607762    3.099635
H      -0.960448   -2.696146   -0.871487
H       0.855236   -0.951255   -4.206020
