23

C      -0.363888    1.668297    0.183328
C       0.073889    0.211547    0.062577
C      -1.147613   -0.685794   -0.206628
O       0.998759    0.138516   -1.039307
C       1.742891   -1.068954   -0.913142
C       1.914923   -1.331141    0.592707
C       3.077932   -0.578484    1.293617
C       2.083491    0.512574    1.774048
C       0.891314   -0.340153    1.245859
H       0.494103    2.333472    0.298015
H      -0.907130    1.972824   -0.716138
H      -1.027076    1.800708    1.043802
H      -1.603490   -0.418300   -1.164415
H      -0.875571   -1.745134   -0.241878
H      -1.898519   -0.563211    0.580417
H       1.213480   -1.905561   -1.393687
H       2.691595   -0.926575   -1.441049
H       1.828397   -2.392881    0.831969
H       3.519119   -1.151361    2.113100
H       3.886876   -0.240200    0.639411
H       2.076647    0.709404    2.848537
H       2.204235    1.464341    1.253433
H       0.255920   -0.752222    2.032274
