21

C      -0.047035    1.513651    0.510029
C      -0.090062    0.167084   -0.227218
O       0.923762   -0.718635    0.247036
C      -1.422029   -0.443504   -0.159132
C      -2.509817   -0.955307   -0.067760
C      -3.825069   -1.581723    0.051153
C      -3.718224   -3.052347    0.499450
C      -4.719090   -0.765122    0.999544
O      -6.016423   -1.336689    0.963335
H       0.960612    1.932397    0.444348
H      -0.758549    2.220536    0.073107
H      -0.304884    1.379737    1.565657
H       0.170155    0.336859   -1.279334
H       0.639443   -1.041811    1.109133
H      -4.313695   -1.558909   -0.932736
H      -4.717569   -3.482324    0.590298
H      -3.140573   -3.635861   -0.221542
H      -3.217960   -3.121769    1.470817
H      -4.290466   -0.793728    2.013652
H      -4.731783    0.284421    0.671285
H      -6.573558   -0.863571    1.587556
