21

C      -0.028726    1.547027    0.022277
C      -0.029800    0.016369    0.005613
C       0.774157   -0.590786    1.164214
C       0.778444   -2.090303    1.172000
N       1.387551   -2.950004    0.093827
C       0.850443   -3.939412    1.082424
C       1.275654   -3.055299    2.293379
N      -0.061866   -3.054532    2.972891
C      -0.391573   -3.086995    1.510662
H       0.990552    1.941982   -0.051150
H      -0.605537    1.955686   -0.813181
H      -0.465759    1.932086    0.950222
H      -1.062825   -0.351718    0.050805
H       0.383309   -0.338397   -0.947237
H       1.812634   -0.237827    1.117282
H       0.363770   -0.253505    2.124417
H       0.796512   -2.937135   -0.742252
H       0.937080   -5.021049    0.960018
H       2.228741   -3.034914    2.822413
H      -0.240638   -3.970030    3.394450
H      -1.412641   -3.107697    1.122225
