19

C       0.009869    1.551019   -0.086071
C      -0.087886    0.067876    0.134580
O       1.118744   -0.705845   -0.122502
C       0.569040   -0.725240    1.201122
C       1.435517   -0.204262    2.314076
C      -0.293040   -1.983780    1.437370
O      -0.769879   -2.105379    2.773196
C      -1.407680   -1.839569    0.422928
C      -1.318595   -0.695321   -0.258177
H       0.940195    1.950154    0.322886
H      -0.011690    1.780400   -1.157214
H      -0.832149    2.069969    0.384387
H       1.892746    0.749907    2.043626
H       0.854081   -0.080055    3.230744
H       2.240223   -0.915753    2.528903
H       0.307912   -2.883022    1.259353
H      -1.467344   -1.450201    2.888386
H      -2.164621   -2.605245    0.296461
H      -2.000012   -0.357000   -1.030625
