15

C      -0.017005    1.554890    0.020354
C      -0.001210    0.050497   -0.008526
C      -0.032260   -0.654671   -1.170538
N      -0.016337   -2.023985   -1.166667
C       0.031306   -2.848924   -0.037790
O       0.041870   -4.063737   -0.125539
C       0.063318   -2.062121    1.189867
F       0.109004   -2.763406    2.316710
C       0.048263   -0.707053    1.205973
H       0.879370    1.956351    0.507151
H      -0.060736    1.969018   -0.990431
H      -0.881916    1.936386    0.575264
H      -0.070593   -0.186246   -2.146310
H      -0.040133   -2.531977   -2.040189
H       0.074508   -0.198308    2.164942
