16

C      -0.455410    1.198299   -0.138466
N       0.388610    0.036246    0.160033
C       0.814173   -0.715685   -0.928915
C       0.641600   -2.041083   -1.207955
N       0.026309   -2.990073   -0.381581
C       1.294365   -2.282086   -2.464214
C       1.813888   -1.087490   -2.851689
O       1.553149   -0.121251   -1.944066
H       0.040796    1.957736   -0.758996
H      -1.351751    0.860910   -0.666982
H      -0.766519    1.664836    0.801150
H       1.152071    0.298078    0.775851
H      -0.492499   -2.532976    0.359782
H      -0.584270   -3.618248   -0.889170
H       1.368700   -3.220602   -2.991551
H       2.372714   -0.781356   -3.721527
