18

O      -0.088687    1.409654   -0.084322
C       0.021072    0.002838    0.077113
C      -1.383840   -0.577373    0.007387
C      -2.083574   -0.418159   -1.392659
C      -2.369859   -1.910299   -1.695708
N      -2.821795   -2.486444   -0.380866
C      -1.454558   -2.126232    0.125431
C      -1.014930   -2.536685   -1.299812
O      -0.110573   -3.108097   -1.821139
H       0.797644    1.782874   -0.090709
H       0.649554   -0.442277   -0.710595
H       0.480428   -0.252879    1.045696
H      -1.981457   -0.116710    0.800939
H      -3.007360    0.163482   -1.337777
H      -1.432087    0.058485   -2.130367
H      -2.919655   -2.181102   -2.595177
H      -3.550227   -1.917901    0.053427
H      -1.096451   -2.608236    1.033851
