21

C      -0.207129    1.466488   -0.091682
O      -0.426606    0.104321   -0.385579
C       0.558706   -0.517913   -1.173478
C       0.576107    0.016406   -2.605621
C       1.980266   -0.661367   -0.548043
C       1.977255   -2.157665   -0.949599
C       0.423633   -2.087855   -1.150462
C      -0.338423   -2.636010   -0.046698
C      -0.947420   -3.127106    0.866399
H       0.784322    1.638239    0.352747
H      -0.306499    2.112585   -0.975529
H      -0.969148    1.757010    0.635500
H       0.896657    1.062229   -2.638085
H       1.269290   -0.557145   -3.228500
H      -0.423923   -0.054870   -3.044748
H       2.776502   -0.028981   -0.947973
H       1.931485   -0.541622    0.536881
H       2.497767   -2.349249   -1.890544
H       2.322780   -2.871060   -0.201725
H       0.059073   -2.507022   -2.093703
H      -1.499505   -3.544305    1.671349
