19

C       0.485525    0.427064   -1.414481
C       0.022739    0.082905    0.003380
O       0.117322    1.212681    0.871339
C      -1.386787   -0.482963   -0.015316
C      -1.763912   -1.902419    0.165543
C      -0.863056   -2.637060    1.157126
C      -1.191791   -1.498045    2.155265
N      -2.157147   -0.847296    1.192612
H       1.493369    0.848812   -1.387815
H       0.492751   -0.462928   -2.052795
H      -0.182385    1.166208   -1.872256
H       0.722267   -0.643151    0.427901
H      -0.645323    1.777947    0.706543
H      -2.040542    0.056777   -0.702764
H      -2.502530   -2.380355   -0.471626
H      -1.282998   -3.595650    1.467049
H       0.179434   -2.795907    0.864524
H      -1.738824   -1.837025    3.036631
H      -0.380979   -0.837709    2.470410
