23

C      -0.228725    1.320414    0.096961
O       0.332086    0.047675   -0.125660
C       0.787649   -0.574244    1.051535
C      -0.264068   -1.204022    2.031457
C       0.415139   -2.564952    1.825822
C       0.633175   -3.585786    2.905174
C       0.351307   -2.902115    0.360702
C       1.417664   -1.943572    0.830465
C       2.886870   -2.180253    0.623189
H       0.496362    2.009957    0.558734
H      -0.525857    1.721982   -0.875099
H      -1.116765    1.274673    0.745778
H       1.468712    0.102464    1.591661
H      -0.177954   -0.815690    3.050028
H      -1.310174   -1.140573    1.712646
H      -0.307943   -4.074863    3.185629
H       1.323835   -4.370189    2.577529
H       1.049829   -3.130021    3.811161
H       0.721793   -3.888343    0.095345
H      -0.470146   -2.552598   -0.259229
H       3.200659   -1.862983   -0.378392
H       3.490691   -1.625919    1.351427
H       3.136210   -3.241871    0.723700
