19

O       0.052152    1.441930   -0.041060
C      -0.004537    0.019152   -0.020937
C       0.702815   -0.565027    1.208773
C      -0.105280   -0.326324    2.462391
C      -1.418877   -0.091753    2.449899
C      -2.247951   -0.047441    1.189822
C      -1.448918   -0.460989   -0.033149
C      -2.112584   -0.792714   -1.294350
O      -1.595143   -1.828818   -0.448957
H      -0.127525    1.748597    0.855264
H       0.491749   -0.316275   -0.936334
H       0.858751   -1.641728    1.059155
H       1.697444   -0.113233    1.296546
H       0.425597   -0.355787    3.410452
H      -1.947428    0.080592    3.384246
H      -3.117179   -0.709351    1.280648
H      -2.649717    0.965723    1.044210
H      -3.199320   -0.749066   -1.360857
H      -1.585645   -0.648349   -2.236698
