21

C      -0.231909    1.513392    0.002407
C       0.060528    0.015567   -0.051617
O       0.929567   -0.307739   -1.142504
C       0.756199   -0.513944    1.211490
C       0.810198   -2.047510    1.240293
N       2.082401    0.086344    1.295891
C       2.731661    0.180561    2.502973
N       4.067975    0.559429    2.398987
O       2.202044   -0.060229    3.573948
H       0.688635    2.078861    0.167787
H      -0.689308    1.853544   -0.934200
H      -0.930820    1.742936    0.813027
H      -0.888462   -0.532826   -0.159308
H       0.568047    0.085570   -1.942141
H       0.201813   -0.166193    2.087243
H      -0.200148   -2.470768    1.231538
H       1.349144   -2.432090    0.369813
H       1.313067   -2.380351    2.151036
H       2.627858    0.022469    0.449444
H       4.322024    1.159215    1.628007
H       4.448839    0.853569    3.285719
