14

N       0.020934    1.155279    0.441966
C       0.004281   -0.013664   -0.010506
O       1.116628   -0.690870   -0.490432
C       0.730604   -1.943033   -1.057317
C       1.595904   -3.014375   -0.547006
N       2.257768   -3.877505   -0.159179
C      -0.744094   -2.097224   -0.680374
C      -1.080196   -2.023708    0.756333
N      -1.167059   -0.814805   -0.106510
H       0.963009    1.542999    0.410320
H       0.841820   -1.894365   -2.147096
H      -1.403120   -2.566671   -1.401240
H      -2.040574   -2.387144    1.103448
H      -0.270608   -2.071211    1.479327
