21

C      -0.440481    1.358314   -0.028218
C       0.054093   -0.083021    0.040588
O       0.850342   -0.300477   -1.135061
C       0.683127   -1.559903   -1.735543
C       0.924240   -2.751805   -0.856876
C       1.256503   -2.781534    0.443411
C       1.372248   -1.683161    1.394335
C       0.852081   -0.447819    1.286112
C       1.047581    0.571318    2.375119
H       0.400701    2.056398   -0.062993
H      -1.029867    1.496067   -0.938034
H      -1.067549    1.609889    0.831566
H      -0.817012   -0.756654   -0.004064
H      -0.316073   -1.654108   -2.203293
H       1.403870   -1.578206   -2.565308
H       0.852041   -3.700682   -1.386806
H       1.461485   -3.762949    0.867672
H       1.914887   -1.924525    2.306458
H       1.650925    0.160650    3.188643
H       1.552321    1.471154    2.002549
H       0.093804    0.907064    2.801658
