20

C      -0.240839    1.435786   -0.048577
N       0.174740    0.048340   -0.028271
C       1.126978   -0.491926   -1.031975
C       1.932729   -1.154432    0.105590
C       2.465672   -2.557201    0.064900
C       2.471341   -0.095661    1.062712
C       3.066239    1.204849    0.689355
O       3.867962    1.793015    1.379850
C       0.969260   -0.484614    1.051755
H       0.590300    2.161490   -0.036246
H      -0.843052    1.622667   -0.943700
H      -0.870819    1.632990    0.824734
H       0.649815   -1.219219   -1.698393
H       1.647130    0.253875   -1.644396
H       3.349003   -2.627243   -0.580300
H       2.758195   -2.897560    1.062825
H       1.711836   -3.252100   -0.321322
H       2.966853   -0.526636    1.930354
H       2.754551    1.627745   -0.289317
H       0.515275   -0.830684    1.975331
