18

C      -0.297311    1.459876    0.015540
N      -0.224733    0.007541    0.055212
C       0.646262   -0.555284    0.770248
C       0.722477   -2.063985    0.866313
O       2.068537   -2.505343    1.005496
C       2.622589   -2.003850    2.183068
C       3.740130   -1.002463    2.042438
C       2.358425   -0.548893    2.436525
O       1.594766    0.142704    1.475224
H       0.293286    1.839291   -0.827899
H      -1.335811    1.756501   -0.157729
H       0.069842    1.946741    0.926449
H       0.111156   -2.421784    1.709189
H       0.323775   -2.489390   -0.053943
H       2.623747   -2.700835    3.020370
H       4.522141   -0.983513    2.792913
H       4.050780   -0.777185    1.028833
H       2.175058   -0.188126    3.443632
