14

C      -0.062523   -1.210733   -0.082950
C      -0.025896   -0.010142   -0.025719
C      -0.013812    1.436264    0.012041
C       0.060142    2.099373    1.445295
O       1.481814    1.765677    1.464716
C       1.408927    2.124527    0.050930
C       1.014455    3.608583    0.116904
C       0.086124    3.591266    1.076561
H      -0.084353   -2.271600   -0.123042
H      -0.739052    1.868033   -0.681704
H      -0.509364    1.736065    2.298262
H       2.248817    1.787503   -0.553125
H       1.398944    4.414673   -0.489603
H      -0.521661    4.378847    1.495818
