16

O      -0.238739    0.003455   -0.027265
C      -0.018856    1.185116    0.036133
C       1.336291    1.828668   -0.138402
C       1.312732    2.938201   -1.211993
C       2.585868    3.718727   -1.245674
C       3.485145    3.882561   -2.245897
O       4.494177    4.688391   -1.791337
C       4.143067    4.969193   -0.518420
N       3.034002    4.432161   -0.132292
H      -0.843910    1.910163    0.237402
H       1.615579    2.289989    0.818597
H       2.071959    1.055390   -0.374535
H       1.123655    2.502857   -2.198613
H       0.479902    3.621324   -0.999753
H       3.566090    3.535607   -3.261393
H       4.811349    5.604969    0.040952
