17

C       0.077467    1.430424    0.072264
C       0.018206   -0.054459    0.005732
C       0.010957   -0.919267   -1.017225
C      -0.015425   -2.273591   -0.301048
O      -0.979683   -2.024662    0.777636
C      -0.010248   -1.017855    1.210622
C       1.070517   -2.046185    0.785123
C       1.940153   -2.939071    1.530687
O       2.447783   -1.893891    0.655713
H       0.972645    1.765155    0.611431
H       0.100211    1.873532   -0.926896
H      -0.786269    1.840929    0.609967
H       0.048618   -0.742697   -2.081906
H      -0.166626   -3.201053   -0.849979
H      -0.153442   -0.641636    2.222789
H       2.115409   -2.775493    2.592479
H       2.112428   -3.955006    1.180060
