21

C      -0.434561    0.977844   -0.152138
O       0.362809   -0.138278    0.206597
C       0.943741   -0.759385   -0.889223
C       1.190894   -2.235678   -0.751611
C       0.131518   -1.728677   -1.710268
O      -1.219276   -1.843888   -1.387862
C      -1.783901   -3.077438   -1.729187
C      -1.817324   -4.192520   -0.717476
C      -3.075021   -3.416639   -1.061662
H       0.158484    1.744990   -0.673522
H      -1.273144    0.678803   -0.791753
H      -0.819081    1.404208    0.777514
H       1.677683   -0.150715   -1.421906
H       2.105481   -2.665647   -1.144373
H       0.829111   -2.670957    0.172139
H       0.343202   -1.793366   -2.778835
H      -1.657527   -3.344748   -2.778615
H      -1.717566   -5.214970   -1.065381
H      -1.371340   -3.993835    0.249646
H      -3.432507   -2.708993   -0.322328
H      -3.851369   -3.897632   -1.645691
