21

C      -0.083168    1.548994   -0.063579
C       0.004125    0.022817   -0.036125
O      -1.308102   -0.548215    0.098239
C       0.723353   -0.579703   -1.269782
C       1.326399   -1.917991   -0.787344
C       1.560285   -1.746272    0.709060
C       2.259012   -0.500121    1.195574
O       2.961298    0.367182    0.344555
C       0.760694   -0.532468    1.165741
H       0.915808    1.991431   -0.082067
H      -0.626237    1.892073   -0.953582
H      -0.616467    1.914005    0.819393
H      -1.849946   -0.189036   -0.612545
H       0.017473   -0.713150   -2.095814
H       1.512085    0.096125   -1.602770
H       0.612171   -2.734526   -0.933877
H       2.235941   -2.182535   -1.338739
H       1.636036   -2.639106    1.321102
H       2.691545   -0.569483    2.194298
H       3.777808   -0.071632    0.084158
H       0.224166   -0.509466    2.107536
