19

C       0.046020    1.232849   -0.486536
N      -0.207963    0.203610    0.522148
C      -1.454152   -0.467070    0.336763
C      -1.630279   -1.612026   -0.620355
O      -0.509098   -1.978030   -1.332775
C      -0.510408   -3.336976   -1.751812
C      -1.656596   -1.871140    0.905770
C      -0.546237   -2.545926    1.507255
N       0.356949   -3.091579    1.984116
H       1.013323    1.698906   -0.281049
H       0.049385    0.854045   -1.519666
H      -0.720465    2.012323   -0.410573
H       0.551468   -0.468365    0.528117
H      -2.310970    0.192405    0.453518
H      -2.582570   -1.747885   -1.136221
H       0.408880   -3.491374   -2.319427
H      -0.524952   -4.019202   -0.893675
H      -1.373839   -3.549265   -2.397899
H      -2.615808   -2.088315    1.363263
