18

C      -0.165441    1.449296    0.149393
N       0.083531    0.032486   -0.059067
C       0.689674   -0.467661   -1.275309
C       1.479566    0.465528   -2.194959
C       2.622082    0.948567   -1.328533
C       2.615414    0.371615   -0.125193
C       1.444342   -0.549827    0.043954
C       1.582695   -1.730334    0.850072
C       1.735922   -2.709024    1.531761
H       0.632712    2.121898   -0.192806
H      -1.090223    1.711300   -0.374888
H      -0.323368    1.620399    1.218537
H       0.206358   -1.341142   -1.703261
H       1.840012   -0.078873   -3.076235
H       0.867572    1.294848   -2.573837
H       3.328993    1.701288   -1.659636
H       3.329430    0.541356    0.671006
H       1.856483   -3.576522    2.131813
