16

O      -0.217315    1.340533    0.032563
C       0.036699   -0.039592   -0.026110
C       0.769001   -0.413636   -1.262603
N       1.331700   -0.714335   -2.225708
C       0.779292   -0.565771    1.201893
C      -0.028890   -1.078989    2.392312
C       0.707502   -2.048345    1.535934
C       2.031981    0.147309    1.539310
O       2.420156    1.145374    0.973867
H       0.648521    1.766921    0.126557
H      -0.941738   -0.531242   -0.079777
H       0.353427   -0.866252    3.384795
H      -1.106504   -1.003872    2.301734
H       0.148955   -2.666433    0.841604
H       1.604125   -2.516909    1.927183
H       2.609060   -0.291612    2.382588
