20

O       0.166094    1.380169   -0.066749
C       0.076473   -0.020669   -0.026530
C      -1.370014   -0.541575    0.066757
C      -1.453223   -2.059556   -0.151893
C      -2.883112   -2.546461    0.080896
C      -3.313941   -2.172540    1.489897
O      -3.152408   -0.772543    1.777516
C      -2.041650   -0.107943    1.361056
N      -1.641233    0.921212    1.990631
H      -0.284026    1.676414    0.742704
H       0.518946   -0.398760   -0.955918
H       0.657047   -0.448275    0.808957
H      -1.942606   -0.050939   -0.734671
H      -1.113994   -2.299894   -1.164358
H      -0.772003   -2.573803    0.540168
H      -3.561523   -2.087761   -0.648474
H      -2.962468   -3.632671   -0.036432
H      -4.373116   -2.375361    1.664653
H      -2.732878   -2.742830    2.228272
H      -2.219159    1.089299    2.815009
