15

O       0.088189   -0.150092   -0.008438
C       0.004888    1.049004   -0.047972
C       1.207997    1.975643    0.027700
C       1.251037    2.972453   -1.139008
O       0.129133    3.832290   -1.012068
C      -0.158202    4.657513   -2.054015
O      -1.043534    5.450932   -2.000032
C       2.562630    3.758485   -1.139919
O       2.618910    4.954127   -1.222897
H      -0.973300    1.564256   -0.142716
H       1.147483    2.550139    0.961147
H       2.113643    1.363724    0.046429
H       1.213031    2.418865   -2.092762
H       0.485687    4.484615   -2.934285
H       3.472711    3.123177   -1.073225
