20

C       0.069291    1.565173    0.068288
C       0.030082    0.057209   -0.084458
C       0.722650   -0.633127   -1.315799
N       1.806544    0.027570   -2.002403
C       1.205052   -1.687246   -0.266227
C       2.579964   -2.181238   -0.330711
N       3.667074   -2.571717   -0.363058
N       0.936438   -0.708073    0.798985
C       0.458029   -1.194511    2.075359
H       1.078548    1.951722   -0.097541
H      -0.610908    2.045043   -0.643925
H      -0.243929    1.861134    1.074911
H      -1.011475   -0.303453   -0.003639
H       0.029552   -1.030463   -2.059310
H       1.461807    0.789788   -2.576219
H       2.479009    0.413676   -1.347004
H       0.524186   -2.555078   -0.244593
H       1.237571   -1.790103    2.560762
H       0.228471   -0.347787    2.729296
H      -0.450787   -1.818483    1.984765
