13

N       0.047593    1.309617    0.009319
C      -0.014845    0.046560    0.003223
O       1.163720   -0.726848   -0.007375
C       1.100386   -2.081648   -0.013945
N       0.027026   -2.787048   -0.011441
C      -1.165870   -2.081205   -0.001158
C      -1.231629   -0.734968    0.006055
C       2.391654   -2.683215   -0.024096
C       3.484767   -3.182785   -0.032647
H       1.014845    1.633023    0.005536
H      -2.060594   -2.694486    0.000745
H      -2.166887   -0.191850    0.014069
H       4.447679   -3.632442   -0.040271
