16

C      -0.041113    1.517829    0.004324
C       0.003535   -0.003083   -0.003392
C       1.349715   -0.693264   -0.226039
C       0.731749   -0.718291    1.135215
C      -1.149611   -0.659479   -0.538860
C      -2.127334   -1.211259   -0.992747
C      -3.297537   -1.839269   -1.535571
O      -3.459515   -3.036283   -1.632266
H       0.880746    1.924960    0.430197
H      -0.150082    1.911843   -1.010665
H      -0.882064    1.882164    0.602139
H       1.352342   -1.607415   -0.806755
H       2.196761   -0.038931   -0.400574
H       1.148950   -0.081303    1.907412
H       0.309092   -1.649654    1.491342
H      -4.075750   -1.124240   -1.874590
