18

C      -0.038567    1.506039    0.049134
C       0.100566    0.006265    0.024202
N      -0.770239   -0.835087    0.877535
C       0.703591   -0.803488    1.122786
C       1.410573   -1.943901    0.478024
C       1.261711   -1.902025   -0.848227
C       0.458069   -0.692768   -1.302776
C      -0.779673   -1.105755   -2.090801
O      -0.903633   -0.955464   -3.279607
H       0.848931    1.991311   -0.370574
H      -0.904390    1.834717   -0.537241
H      -0.168487    1.870446    1.073619
H      -1.228721   -0.226635    1.555536
H       1.062919   -0.355836    2.043464
H       1.950395   -2.704021    1.029403
H       1.633035   -2.635047   -1.554796
H       1.050014   -0.043848   -1.959162
H      -1.569290   -1.572185   -1.467697
