16

C      -0.102827    1.619662   -0.009839
C       0.064968    0.106188    0.012906
C       1.136167   -0.594124   -0.871841
O       1.292872   -0.633732   -2.061150
C       1.751339   -1.312906    0.283066
C       2.128017   -0.285208    1.366267
C       0.695059   -0.611106    1.214387
O      -0.120459   -1.127464    2.193344
H       0.823313    2.137404    0.258588
H      -0.386700    1.947905   -1.014320
H      -0.884344    1.941620    0.685530
H      -0.888349   -0.386815   -0.217881
H       2.190826   -2.302938    0.285924
H       2.622266   -0.750642    2.216834
H       2.544897    0.683528    1.102792
H       0.391357   -1.263220    2.996767
