19

C       1.370068    0.481738    0.386162
C      -0.009441   -0.008249    0.044922
N      -1.025321    0.085322    0.821076
O      -0.685744    0.693492    2.039710
C      -0.266396   -0.661846   -1.252482
C      -1.595774   -1.287093   -1.701168
C      -0.794216   -2.393769   -2.463510
C       0.510282   -1.731011   -2.004594
N       0.576601   -0.336291   -2.404887
H       2.030233    0.403318   -0.477050
H       1.324327    1.523243    0.717313
H       1.780836   -0.093844    1.222563
H      -1.532374    0.711791    2.497971
H      -2.174512   -1.683990   -0.867256
H      -2.240585   -0.631156   -2.294613
H      -0.947838   -3.386071   -2.033601
H      -0.929803   -2.458271   -3.548594
H       1.438809   -2.227233   -1.744157
H       0.030995   -0.131573   -3.240878
