18

C      -0.119298    1.513505    0.126249
C      -0.032999    0.039496   -0.063281
C       0.867427   -0.943330   -0.921837
C       1.197657   -1.597357    0.427966
N      -0.029469   -0.974791    1.023714
C      -1.066452   -1.045057   -0.099214
C      -0.426221   -1.686542   -1.335306
C      -2.441683   -1.012103    0.256014
C      -3.617018   -0.982908    0.512279
H       0.827382    1.923772    0.494886
H      -0.365353    2.019179   -0.813560
H      -0.899963    1.744915    0.856932
H       1.625082   -0.682926   -1.658406
H       1.243742   -2.691231    0.477839
H       2.069082   -1.165390    0.926828
H      -0.871068   -1.275542   -2.244306
H      -0.387173   -2.779135   -1.398414
H      -4.650954   -0.962151    0.752283
