14

O       0.227750    1.388859   -0.174974
C       0.044657    0.010488   -0.031704
C       0.002594   -0.679031    1.370673
C      -1.439313   -0.110189    1.538991
C      -1.377342   -0.630860    0.070636
C      -0.653704   -1.883935    0.639377
H      -0.341933    1.852473    0.447114
H       0.714582   -0.454508   -0.760037
H       0.793705   -0.712293    2.121192
H      -2.098787   -0.656210    2.218766
H      -1.555616    0.966493    1.702327
H      -2.173862   -0.608699   -0.674552
H      -0.022042   -2.448986   -0.052042
H      -1.261356   -2.545791    1.259851
