21

C       0.082232    1.477407   -0.149355
C       0.006858   -0.042857   -0.001480
O       0.644097   -0.481096    1.196611
C      -1.422293   -0.552642    0.072525
C      -2.301753   -0.462178   -1.213077
C      -2.777023   -1.883979   -0.905745
C      -4.146488   -2.397232   -0.858259
O      -3.216636   -2.822053   -1.867528
C      -1.635750   -2.097114    0.088806
H       1.124498    1.813236   -0.201334
H      -0.417596    1.812376   -1.063926
H      -0.391080    1.966812    0.707898
H       0.492347   -0.510622   -0.876430
H       1.553050   -0.165079    1.183936
H      -1.922257   -0.084010    0.926052
H      -3.053020    0.328945   -1.268986
H      -1.693769   -0.439785   -2.124292
H      -4.416980   -3.156638   -0.125118
H      -4.971555   -1.781228   -1.215199
H      -0.796391   -2.626234   -0.373709
H      -1.867611   -2.570199    1.044749
