21

C      -0.095914    1.485745    0.008710
C      -0.029378   -0.044988   -0.024621
C      -1.405071   -0.638870   -0.306665
C       1.141754   -0.560567   -0.913309
O       1.525328    0.318925   -1.942634
C       2.031158   -0.689265    0.346968
C       0.737323   -0.679439    1.210696
C       0.768199    0.079277    2.506229
O       0.255095   -0.291316    3.532610
H       0.874776    1.946927    0.207034
H      -0.437611    1.861848   -0.959327
H      -0.800648    1.824841    0.775343
H      -1.793039   -0.276375   -1.265552
H      -1.368145   -1.732453   -0.348347
H      -2.122750   -0.357509    0.471875
H       0.896097   -1.554391   -1.315193
H       2.202163   -0.108357   -2.476480
H       2.687861   -1.557216    0.437291
H       2.618474    0.222093    0.497558
H       0.361398   -1.685006    1.414208
H       1.320321    1.046853    2.464503
