17

C       0.011579    1.521213   -0.643510
O       0.024466    0.171355   -1.056019
C       0.865135   -0.635941   -0.278635
C       0.696515   -2.116504   -0.706193
O       1.661599   -2.888437   -0.047843
C      -0.703049   -2.620346   -0.315098
O      -1.724769   -2.280578   -0.846134
C       0.864512   -2.236609   -2.219471
O       1.783425   -2.871270   -2.677732
H      -0.332853    1.619645    0.396883
H       1.008520    1.980161   -0.724666
H      -0.680473    2.052424   -1.299794
H       1.928141   -0.377533   -0.412593
H       0.637626   -0.546320    0.796530
H       2.220451   -3.260004   -0.751472
H      -0.662311   -3.347025    0.525568
H       0.110518   -1.727929   -2.839018
