15

O      -0.207171    0.354874    0.732571
C       0.123610    1.086343   -0.160457
C       1.297160    2.045565   -0.061622
O       1.469756    2.649564   -1.332779
C       2.532504    3.552414   -1.385739
C       2.630441    4.344091   -2.697468
O       2.482631    5.602952   -1.960513
C       2.293850    4.952517   -0.768582
O       2.018179    5.416210    0.289894
H      -0.406724    1.125252   -1.137157
H       1.088955    2.794317    0.715815
H       2.195275    1.486864    0.245494
H       3.476268    3.098207   -1.050882
H       3.582012    4.312065   -3.229048
H       1.787977    4.184454   -3.372007
