17

C      -0.004169    1.530933    0.001504
C       0.051928    0.025297   -0.048270
C       0.471842   -0.721136   -1.305623
C       0.388810   -2.013096   -0.986230
C      -0.079755   -2.010938    0.462410
O      -0.357491   -3.192214    1.125036
C       0.619492   -0.784603    1.178561
O      -0.582578   -0.513732    1.971595
C      -1.088835   -0.830661    0.631735
H       0.978988    1.970489   -0.198833
H      -0.702911    1.926232   -0.743759
H      -0.333395    1.856646    0.991743
H       0.762330   -0.262314   -2.241382
H       0.581350   -2.893786   -1.583887
H       0.443860   -3.725133    1.156482
H       1.591391   -0.710416    1.675682
H      -2.170204   -0.812276    0.471829
