23

C       0.352611    1.497837    0.114424
C       0.144530   -0.019605    0.064874
C       0.472661   -0.588565   -1.305343
O       1.874310   -0.408254   -1.650774
C       2.040652   -1.810131   -1.855343
C       2.919944   -2.340759   -2.937555
C       3.304695   -2.508303   -1.471627
C       0.585212   -2.129243   -1.512052
C       0.316828   -3.069604   -0.344523
H       1.384538    1.747671   -0.147546
H      -0.307363    2.011999   -0.593268
H       0.146549    1.894043    1.113109
H       0.772556   -0.502149    0.821770
H      -0.897481   -0.267854    0.306550
H      -0.160590   -0.104014   -2.062180
H       2.595659   -3.215877   -3.492500
H       3.477574   -1.614491   -3.519335
H       4.111317   -1.888780   -1.094091
H       3.246254   -3.497474   -1.028438
H       0.015991   -2.458893   -2.386470
H       0.906913   -2.806351    0.537292
H      -0.741347   -3.060263   -0.063031
H       0.573122   -4.099190   -0.617166
