17

O      -0.060282   -0.032388    0.105492
C      -0.003596    1.176780    0.058157
C       1.236973    1.942128   -0.025106
C       1.373019    3.282991   -0.007827
C       2.855600    3.585181   -0.000946
C       3.363260    3.063335    1.382850
O       3.201441    1.645283    1.300969
C       2.652301    1.378570   -0.019819
C       3.383444    2.416770   -0.882992
H      -0.928038    1.797817    0.062336
H       0.582059    4.017527    0.092760
H       3.160234    4.601901   -0.243551
H       4.422446    3.309334    1.528948
H       2.785917    3.463867    2.223912
H       2.762833    0.318147   -0.229705
H       3.024722    2.466740   -1.912036
H       4.469935    2.300045   -0.859541
