17

O       0.106924    1.429209   -0.080213
C      -0.013592    0.043835    0.032404
C       0.243024   -0.689094    1.378299
C      -0.760875   -0.169365    2.477047
O      -1.620247    0.880349    1.947121
C      -2.306200   -0.141338    1.168108
C      -1.398531   -0.659323   -0.012149
C      -0.828438   -1.763302    0.955713
C      -1.778030   -1.276870    2.087210
H      -0.469091    1.790882    0.607568
H       0.628660   -0.400788   -0.735356
H       1.258625   -0.914161    1.703290
H      -0.388576    0.060412    3.475365
H      -3.347040    0.114067    0.969453
H      -1.890633   -0.857046   -0.964231
H      -0.608924   -2.789084    0.674593
H      -2.373997   -1.869246    2.778121
