21

C      -0.001902    1.476423   -0.027665
C       0.065628   -0.037052   -0.007077
C       1.424840   -0.652601   -0.201805
C       0.741593   -0.661483    1.180788
C       0.731345   -2.204942    1.176446
C      -0.477438   -2.996428    0.601476
O      -1.737523   -2.402263    0.824928
C       0.156340   -2.923618   -0.835047
C       1.396516   -2.198029   -0.232306
H       0.896766    1.920677    0.414625
H      -0.089275    1.855128   -1.052002
H      -0.865950    1.839517    0.539261
H      -0.815047   -0.521496   -0.413746
H       2.260012   -0.051315   -0.544828
H       0.971355   -0.068189    2.058865
H       1.233735   -2.648436    2.036695
H      -0.469262   -4.030227    0.975827
H      -2.409949   -2.975652    0.443486
H       0.376308   -3.904042   -1.265983
H      -0.421762   -2.346633   -1.560988
H       2.367226   -2.667621   -0.388846
