25

C      -0.146732    1.314097    0.130622
O       0.001865   -0.073984   -0.055724
C       0.679308   -0.528797   -1.238214
C       0.019172    0.019323   -2.513971
C       2.164198   -0.131361   -1.192426
C       0.566262   -2.064910   -1.157106
C      -0.862926   -2.615682   -1.173200
C      -0.907774   -4.109197   -0.879077
O      -2.261408   -4.532464   -0.959587
H       0.814395    1.846654    0.168069
H      -0.770942    1.783411   -0.642705
H      -0.644702    1.443761    1.095419
H       0.199906    1.091666   -2.632015
H       0.431453   -0.480232   -3.396270
H      -1.061084   -0.145725   -2.500640
H       2.620724   -0.475493   -0.259674
H       2.707106   -0.581412   -2.029459
H       2.297790    0.952223   -1.262232
H       1.146323   -2.498677   -1.981182
H       1.060627   -2.373631   -0.227273
H      -1.466347   -2.088862   -0.428474
H      -1.335812   -2.449467   -2.147610
H      -0.278604   -4.654208   -1.603298
H      -0.488774   -4.302519    0.122292
H      -2.294246   -5.471912   -0.757741
