17

C      -0.320714    1.462893    0.031346
C       0.004553   -0.023035   -0.024251
C       0.808286   -0.527454   -1.267682
O       1.063482    0.502126   -2.188040
C       1.970678   -0.915941   -0.302511
N       1.140449   -0.457447    0.809868
C       1.246914   -0.758766    2.122789
O       2.197397   -1.324440    2.625222
H       0.565027    2.066244   -0.175677
H      -1.085045    1.709781   -0.711350
H      -0.705924    1.728931    1.020479
H      -0.899708   -0.615462    0.161478
H       0.343333   -1.393712   -1.752714
H       1.579411    0.141236   -2.915560
H       2.230190   -1.977857   -0.246919
H       2.881170   -0.324844   -0.448604
H       0.361072   -0.421306    2.700088
