21

C      -0.062805    1.474839    0.013141
C       0.025635   -0.027451   -0.000172
C       0.695127   -0.939042   -1.078769
C       0.119155   -1.918778   -0.017071
C       0.681922   -0.958888    1.069548
C      -1.155296   -1.044418   -0.016829
C      -2.291550   -1.102857    1.018112
O      -3.282238   -1.117710   -0.030599
C      -2.278717   -1.083585   -1.066582
H       0.934734    1.927138    0.023072
H      -0.590026    1.848393   -0.871850
H      -0.600273    1.832113    0.898689
H       0.234792   -0.951993   -2.071016
H       1.785373   -0.884187   -1.150045
H       0.166365   -3.008542   -0.026845
H       1.771203   -0.905491    1.155227
H       0.209420   -0.990109    2.055650
H      -2.334318   -2.009779    1.636496
H      -2.399553   -0.225634    1.670792
H      -2.378777   -0.194431   -1.704213
H      -2.313768   -1.978913   -1.702109
