17

C      -0.157563    1.159754    0.050344
C       1.298074    0.920435    0.054057
C       1.802182    0.174956    1.292241
O       1.823702    0.719833    2.589899
C       1.745346   -0.400399    3.482805
C       0.463144   -1.258373    3.299031
N      -0.079172   -1.350051    1.930298
C       0.611446   -0.714183    1.098008
N       0.300455   -0.228626   -0.237810
H      -0.688029    1.340135    0.980484
H      -0.573082    1.655598   -0.821020
H       1.948253    1.291947   -0.728784
H       2.757878   -0.317760    1.051690
H       2.640549   -1.027533    3.345935
H       1.774556    0.010887    4.494437
H       0.657057   -2.267017    3.681438
H      -0.351244   -0.850457    3.909834
