19

O       0.005279    0.031376    0.299885
C      -0.043661    1.203891    0.026855
C      -1.326495    1.970776   -0.342991
C      -0.907322    3.366542   -0.864561
C       0.598980    3.534610   -0.533436
C       1.034881    4.192102    0.793697
C       0.412139    3.529016    1.989552
C       1.563281    2.847766    1.303827
C       1.135754    2.168804   -0.020483
H      -1.897597    1.385292   -1.069411
H      -1.951245    2.024084    0.556712
H      -1.056134    3.419656   -1.947183
H      -1.507052    4.168392   -0.424614
H       1.161638    3.936738   -1.377337
H       1.493296    5.170937    0.868241
H       0.670434    3.985205    2.940213
H      -0.596457    3.127825    1.969546
H       2.483115    2.620780    1.827376
H       1.975360    1.736285   -0.566848
