18

C      -0.024205    1.444353   -0.058314
N      -0.005619    0.007132    0.029137
C      -1.068781   -1.001053   -0.042116
C      -1.719491   -1.177372   -1.417284
O      -0.736726   -1.803605   -2.229063
C      -0.063664   -2.752457   -1.406418
C       0.057245   -2.086927   -0.032234
C       1.036219   -0.887086    0.009481
O       2.230339   -0.739128    0.003190
H       1.012791    1.787907   -0.038948
H      -0.489276    1.790142   -0.989787
H      -0.561315    1.891678    0.786557
H      -1.777922   -0.969672    0.789828
H      -2.617036   -1.810673   -1.316764
H      -2.008517   -0.240176   -1.901147
H      -0.643857   -3.686229   -1.331332
H       0.901436   -2.972489   -1.868873
H       0.110665   -2.774043    0.811413
