23

C      -0.064928    1.532103   -0.039935
C       0.008717    0.021103    0.021755
C       1.347420   -0.690146   -0.204730
C       0.696869   -0.686103    1.136898
C       1.180740   -0.242901    2.529995
C      -0.203953   -0.715742    3.064680
C       0.256488   -1.837042    2.074227
C      -0.476148   -3.096989    1.701540
C       1.672663   -1.707802    2.727371
H       0.828446    1.987655    0.400067
H      -0.141989    1.885334   -1.074518
H      -0.933533    1.914727    0.507946
H      -0.854419   -0.487088   -0.405907
H       1.347370   -1.603958   -0.792297
H       2.221735   -0.064159   -0.362938
H       1.712786    0.672114    2.791338
H      -0.246767   -0.993700    4.122455
H      -1.075720   -0.127964    2.765764
H      -1.451121   -2.870543    1.255165
H       0.096904   -3.686867    0.977179
H      -0.650269   -3.726290    2.581047
H       2.522252   -2.027412    2.118598
H       1.760855   -2.054117    3.761821
