16

C       0.006959    1.553774   -0.148978
C       0.010330    0.055782    0.107274
O       0.063863   -0.425644    1.219408
N      -0.026619   -0.717548   -1.034447
C       0.023205   -2.112136   -1.044865
C       0.139072   -3.066715   -0.064151
N       0.134345   -4.324152   -0.632965
C       0.018375   -4.139943   -1.921150
N      -0.054623   -2.805715   -2.235199
H       1.032426    1.932712   -0.085523
H      -0.403618    1.829913   -1.124319
H      -0.574245    2.037688    0.637355
H      -0.052011   -0.243367   -1.922212
H       0.220464   -2.906003    0.995244
H      -0.017953   -4.905728   -2.681006
H      -0.157527   -2.413953   -3.156236
