18

O      -0.079914    1.386265    0.207287
C       0.012598   -0.000525    0.012754
C      -0.496184   -0.565446   -1.306519
C      -1.294717   -0.743407   -0.033817
C      -1.388664   -2.066190    0.703256
C      -0.063894   -2.856549    0.718643
C       1.122728   -1.975536    1.016143
C       1.144252   -0.680698    0.695055
H       0.604095    1.805131   -0.326767
H      -0.876023    0.153701   -2.024613
H       0.027686   -1.412104   -1.737109
H      -2.168235   -0.103951    0.047853
H      -1.680856   -1.852371    1.739025
H      -2.183031   -2.687566    0.274377
H      -0.130376   -3.664440    1.455767
H       0.080475   -3.358202   -0.248905
H       1.986354   -2.430254    1.493149
H       2.008614   -0.061748    0.923092
