17

O      -0.881432    1.413375    0.616298
C      -0.174575    0.305258    0.119327
C      -1.082705   -0.867545   -0.225169
O      -1.881419   -0.542478   -1.369561
C      -3.264679   -0.570857   -1.247692
C      -3.897342    0.822229   -1.132335
O      -3.270590    1.831297   -0.944729
C      -3.872389   -1.286991   -2.462197
O      -5.055358   -1.392398   -2.641819
H      -1.512657    1.693391   -0.063474
H       0.423314    0.556366   -0.771984
H       0.523126   -0.014018    0.902964
H      -0.485499   -1.756033   -0.469740
H      -1.725408   -1.100279    0.633470
H      -3.611613   -1.133225   -0.362382
H      -4.998129    0.822411   -1.253478
H      -3.104289   -1.685872   -3.157534
