14

O      -0.046440    0.518444   -1.250569
C      -0.020008    1.342931   -0.383969
O      -1.152790    1.735764    0.220279
C      -1.202871    2.742744    1.242466
C      -0.034240    3.673762    1.261058
C       1.126364    3.353122    0.707849
C       1.308561    1.997009    0.063663
C       2.012851    1.085716    0.975741
N       2.565613    0.392522    1.716837
H      -2.132821    3.288976    1.055849
H      -1.314942    2.237136    2.211569
H      -0.182354    4.625950    1.760393
H       1.982205    4.018447    0.723150
H       1.907574    2.068803   -0.850179
