21

C      -0.138290    1.569379    0.048825
C       0.076134    0.060844    0.003556
C       1.174877   -0.524716   -0.946804
C       1.812345   -1.248203    0.236746
C       2.182353   -0.250740    1.318455
C       0.746779   -0.625460    1.212613
C      -0.016818   -1.274385    2.333073
C       2.300367   -2.626223    0.235487
O       2.349146   -3.338651   -0.742291
H       0.794796    2.105887    0.249482
H      -0.528938    1.933231   -0.907616
H      -0.856961    1.845903    0.828076
H      -0.879106   -0.434801   -0.198705
H       0.782789   -1.212235   -1.697208
H       1.817914    0.210043   -1.442591
H       2.706803   -0.668427    2.173750
H       2.550264    0.724560    1.009246
H      -0.489120   -0.511524    2.964644
H      -0.810814   -1.925488    1.951853
H       0.633568   -1.873834    2.977105
H       2.621366   -3.002475    1.235731
