19

C      -0.222758    1.579323   -0.018985
C       0.047323    0.080749   -0.004751
C       1.169236   -0.497929   -0.937043
C       1.796629   -1.234267    0.286807
O       1.893738   -2.626699    0.284690
C       2.922025   -0.473522    1.058737
O       2.657818    0.924743    0.944917
C       1.919026    0.173098    1.924128
C       0.751347   -0.570809    1.228623
H       0.697850    2.147428    0.128832
H      -0.662982    1.883431   -0.975303
H      -0.929795    1.857259    0.771120
H      -0.889231   -0.456366   -0.186598
H       0.804567   -1.190713   -1.699563
H       1.812940    0.253555   -1.398258
H       2.561713   -2.880275   -0.362992
H       3.946333   -0.782588    1.244408
H       1.984222    0.525432    2.947469
H       0.161128   -1.192118    1.902890
