23

C       1.787752   -0.634688    1.642809
C       0.791445   -0.160213    0.579331
C       0.936578   -0.842847   -0.788118
C       2.292976   -0.567684   -1.453140
C       0.498653   -2.347975   -0.883894
C      -0.456106   -2.023794   -2.078232
C      -1.891235   -2.534395   -2.079892
C      -0.228851   -0.538033   -1.755222
O      -0.819021    0.466982   -2.036881
H       1.722093   -1.717181    1.798380
H       2.820747   -0.399411    1.369763
H       1.584073   -0.150171    2.602680
H      -0.229599   -0.326207    0.945232
H       0.885045    0.922861    0.434445
H       3.110825   -0.995830   -0.865429
H       2.345610   -1.005623   -2.455514
H       2.465589    0.509061   -1.550115
H       1.294930   -3.066414   -1.087440
H      -0.053278   -2.674189    0.002479
H       0.028659   -2.261234   -3.033755
H      -2.387580   -2.314881   -1.128855
H      -2.468817   -2.053246   -2.874868
H      -1.927404   -3.616948   -2.238124
