21

C       0.026608    1.482620   -0.247918
C      -0.023011   -0.015637   -0.005885
C      -1.244068   -0.680145   -0.616526
C       1.293281   -0.779073   -0.014725
C       0.570632   -0.537002    1.290772
O       1.099851    0.441490    2.158056
C      -0.064469   -1.689995    2.061932
C       0.968684   -2.501658    2.813227
O       1.078395   -3.699300    2.751143
H       0.870837    1.945382    0.263663
H       0.106098    1.691292   -1.320779
H      -0.887571    1.964715    0.117310
H      -1.308243   -0.432668   -1.682201
H      -1.218862   -1.769639   -0.540455
H      -2.167519   -0.328461   -0.141766
H       1.304736   -1.787361   -0.417523
H       2.204509   -0.215017   -0.190661
H       2.028551    0.241482    2.311234
H      -0.755441   -1.257982    2.799411
H      -0.623496   -2.371114    1.419177
H       1.654061   -1.899877    3.454010
