17

O       0.110454    1.391561    0.202605
C      -0.005949    0.001939    0.041740
C      -1.446107   -0.528098   -0.135983
C      -2.046078    0.147921   -1.373187
O      -1.298706   -0.418749   -2.477380
C      -0.392440   -1.394508   -1.917173
C      -1.156086   -1.939042   -0.707814
C       0.658252   -0.489719   -1.263305
O       1.704691   -0.077185   -1.692033
H       0.926960    1.648881   -0.247777
H       0.463434   -0.533108    0.885981
H      -2.065331   -0.476716    0.758892
H      -3.109457   -0.084570   -1.501999
H      -1.907687    1.231935   -1.361313
H      -0.054084   -2.065442   -2.703797
H      -0.545793   -2.563519   -0.049166
H      -2.057957   -2.483622   -0.995318
