15

C      -0.006521   -1.189341   -0.013409
C      -0.030740    0.011545   -0.034529
C      -0.016932    1.467015   -0.056749
C       1.421249    2.013542    0.046181
N       1.440598    3.466570    0.012751
N       1.165578    4.174665   -1.076741
C       1.269577    5.413596   -0.612555
N       1.590890    5.455804    0.699902
N       1.693825    4.208255    1.085517
H      -0.002992   -2.251230    0.004341
H      -0.470026    1.840087   -0.982029
H      -0.610631    1.866543    0.773938
H       1.884940    1.721343    0.988516
H       2.028963    1.644662   -0.782348
H       1.117820    6.289048   -1.222649
