25

C       0.264057    1.442425    0.396620
C      -0.024998   -0.014508    0.028838
C       0.645330   -0.459804   -1.272092
C       0.429725   -1.947596   -1.555753
O       0.110099    0.367656   -2.307425
C       0.853779    0.416171   -3.483780
C       0.491432   -0.468527   -4.656838
C       0.186591    1.018180   -4.685033
C      -1.243647    1.505695   -4.609684
H       1.335952    1.604046    0.558939
H      -0.058129    2.110771   -0.405297
H      -0.257590    1.728538    1.314987
H       0.309237   -0.681508    0.832485
H      -1.106566   -0.167169   -0.076829
H       1.729361   -0.264503   -1.197225
H      -0.639455   -2.168026   -1.641113
H       0.918829   -2.250102   -2.484559
H       0.842586   -2.552942   -0.742189
H       1.910998    0.635530   -3.324568
H       1.281981   -0.864465   -5.286063
H      -0.354647   -1.133063   -4.517264
H       0.835696    1.619274   -5.316732
H      -1.825173    0.900323   -3.910850
H      -1.288404    2.543722   -4.262618
H      -1.725390    1.458731   -5.592268
