19

C      -0.390914    1.397719    0.035991
N       0.091842    0.026775   -0.008243
C       1.126855   -0.401320   -0.984419
C       1.867785   -1.117777    0.147374
C       2.294510   -0.107240    1.202715
C       2.790740    1.197524    0.867012
N       3.200702    2.245105    0.591908
C       0.824212   -0.563794    1.096441
C       0.103174   -1.143606    2.277721
H       0.399270    2.155636    0.128036
H      -0.961793    1.602857   -0.875521
H      -1.075859    1.505923    0.883268
H       0.721306   -1.068959   -1.751079
H       1.683869    0.410732   -1.468545
H       2.313364   -2.102843    0.102490
H       2.810238   -0.556927    2.046529
H      -0.335809   -0.352689    2.896363
H      -0.705292   -1.798468    1.939745
H       0.782769   -1.720755    2.911180
