16

C       0.022963    1.557850    0.009984
C      -0.025955    0.018803    0.002661
C      -1.385316   -0.506927    0.012082
C      -2.520054   -0.915623    0.020180
C      -3.835268   -1.433672    0.029940
N      -4.934357   -0.657864    0.041291
N      -5.921255   -1.538702    0.047033
N      -5.587040   -2.823056    0.040694
C      -4.258025   -2.783348    0.029565
H       1.060722    1.903458    0.002449
H      -0.484465    1.966659   -0.867658
H      -0.468656    1.957751    0.900633
H       0.503471   -0.362684   -0.880193
H       0.519048   -0.371542    0.872058
H      -6.884948   -1.245282    0.055889
H      -3.667145   -3.684435    0.021947
