19

C       0.084853    1.536386   -0.051261
C       0.024285    0.004106   -0.013711
C      -1.442745   -0.479169    0.054403
C       0.708144   -0.593609   -1.253094
O       0.888573   -1.993587   -1.084353
C       1.784581   -2.231564   -0.058366
O       1.377240   -1.685083    1.203812
C       0.705693   -0.504834    1.267921
O       0.597308    0.045944    2.328876
H       1.117569    1.896518   -0.099438
H      -0.450132    1.914462   -0.928847
H      -0.373224    1.954951    0.846206
H      -2.005242   -0.072537   -0.792862
H      -1.497960   -1.569797    0.010940
H      -1.915671   -0.139817    0.979068
H       0.090007   -0.457033   -2.144368
H       1.683130   -0.111740   -1.431728
H       1.853744   -3.310488    0.089005
H       2.776831   -1.811986   -0.291483
