13

O       0.011081    0.069917    0.012723
C       0.011190    1.260812    0.069592
C      -1.049678    2.326318   -0.003239
C      -0.409783    3.553826    0.617181
N       0.861611    3.119578    1.234891
C       1.102393    2.351724   -0.032683
C      -0.013902    3.206222   -0.794399
C      -0.136875    3.801766   -2.068058
N      -0.209654    4.305853   -3.108599
H      -2.110047    2.245711   -0.196479
H      -1.005373    4.381389    0.979771
H       1.487280    3.924344    1.236369
H       2.120741    2.147980   -0.347976
