15

C      -0.031699    1.408776   -0.045907
N       0.011887   -0.046481   -0.021726
N      -0.012155   -0.670860   -1.226656
C       0.040998   -1.975207   -1.203656
N       0.108255   -2.660790   -2.397692
N       0.077765   -2.763932   -0.073043
C       0.088829   -2.140765    1.058008
C       0.073560   -0.681841    1.203372
O       0.100883   -0.073902    2.265344
H       0.888970    1.819325    0.378606
H      -0.145961    1.717899   -1.082905
H      -0.867436    1.763576    0.562468
H      -0.191491   -2.141304   -3.208178
H      -0.228188   -3.609773   -2.348867
H       0.108510   -2.717549    1.980707
