20

O       0.181920    1.190144   -0.509474
C      -0.001243    0.066166    0.335399
C      -1.409270   -0.481266    0.210490
C      -2.510012    0.409822    0.764147
C      -3.860881   -0.247868    0.820549
C      -4.050846   -1.564736    0.746790
C      -2.934224   -2.562236    0.592391
C      -1.632728   -1.946513    0.114422
N      -1.618485   -1.120982   -1.111230
H      -0.043613    0.881119   -1.395917
H       0.720637   -0.730500    0.100875
H       0.195627    0.410840    1.356586
H      -2.222418    0.734581    1.775678
H      -2.553308    1.333991    0.173157
H      -4.716205    0.411464    0.945249
H      -5.058305   -1.967829    0.809941
H      -2.753782   -3.066008    1.553721
H      -3.236627   -3.362141   -0.098310
H      -0.768658   -2.603994    0.194595
H      -2.580067   -0.965221   -1.410223
