18

C      -0.063208   -1.234812   -0.159351
C      -0.027338   -0.038212   -0.043644
C      -0.034635    1.403713    0.072987
C       0.019615    2.101258    1.466975
C       1.494322    1.641099    1.499955
N       1.348876    2.133670    0.040070
C       0.572402    3.281338    0.671061
C       0.000303    4.451131   -0.038648
C       1.114480    4.618926    1.001818
H      -0.086040   -2.291740   -0.260981
H      -0.727790    1.848141   -0.646138
H      -0.737997    2.087545    2.257062
H       2.198291    2.238823    2.081361
H       1.697442    0.572409    1.576856
H       0.269348    4.596852   -1.079763
H      -0.996688    4.790645    0.223818
H       0.857443    5.070188    1.954926
H       2.102731    4.873076    0.632616
