16

C       0.077685    1.407918   -0.010231
N       0.016745   -0.041130    0.102445
C      -1.239822   -0.628266    0.051246
C      -2.511544   -0.084958    0.078198
C      -3.372930   -1.216224    0.083015
N      -4.766864   -1.198494    0.169521
N      -2.710688   -2.362119    0.048121
N      -1.391266   -1.975760    0.017013
H       1.121456    1.724826    0.047871
H      -0.359306    1.796197   -0.943124
H      -0.459512    1.859076    0.829320
H       0.693603   -0.508027   -0.486160
H      -2.782577    0.957061    0.085702
H      -5.191047   -0.483370   -0.406246
H      -5.156190   -2.105426   -0.056494
H      -0.681621   -2.668045    0.178789
