18

O      -0.113513    1.439893   -0.087741
C      -0.032466    0.037337    0.004251
C       0.886334   -0.526246   -1.103739
C       2.241194    0.006679   -0.983063
N       3.290838    0.470679   -0.843052
C       0.259220   -0.587148    1.419026
C      -1.100103   -1.291766    1.349949
C      -2.188747   -0.269410    1.211518
C      -1.398271   -0.646293   -0.008867
H       0.766504    1.808262    0.059739
H       0.917970   -1.619399   -1.058617
H       0.479758   -0.241883   -2.080536
H       1.121040   -1.258450    1.419793
H       0.374626    0.140818    2.227298
H      -1.295284   -2.308815    1.664511
H      -3.202482   -0.655899    1.228916
H      -2.073869    0.719353    1.645565
H      -1.863670   -1.069412   -0.891687
