20

C      -0.708531    1.207796   -0.000138
C       0.136119   -0.061217   -0.071159
C       1.299920   -0.022827   -1.091779
C       2.298499   -0.990794   -0.503926
C       2.015262   -1.280593    0.763199
C       0.785681   -0.541125    1.261674
C       1.181693    0.582415    2.230091
O      -0.169585   -1.401822    1.893534
H      -0.107148    2.086981    0.255222
H      -1.185506    1.406693   -0.965692
H      -1.502379    1.108732    0.747020
H      -0.516427   -0.894658   -0.354828
H       0.978382   -0.294516   -2.103900
H       1.730777    0.986882   -1.168756
H       3.150586   -1.367328   -1.060064
H       2.594524   -1.926718    1.415700
H       1.838876    1.313487    1.749550
H       0.295046    1.100223    2.607265
H       1.727359    0.169765    3.087920
H       0.154366   -1.610393    2.776175
