15

C      -0.008197    1.500472   -0.035719
C       0.004478   -0.000495   -0.002926
N      -0.047898   -0.651022   -1.168498
C      -0.022715   -1.969269   -1.112939
F      -0.072558   -2.592815   -2.280379
N       0.044178   -2.742934   -0.049083
C       0.088411   -2.094414    1.115793
C       0.074078   -0.703276    1.216072
N       0.193574   -0.043196    2.440820
H       0.852582    1.910647    0.505234
H       0.015107    1.845754   -1.069331
H      -0.911329    1.903420    0.442405
H       0.141391   -2.709863    2.012727
H      -0.015912   -0.620710    3.243492
H      -0.294272    0.839507    2.497565
