16

O      -0.127341    1.325017   -0.057274
N       0.006808   -0.071316   -0.036435
C      -1.126534   -0.653057   -0.017078
C      -2.489828   -0.046196    0.116510
N      -3.469960   -0.457448   -0.923234
C      -3.443515   -1.168431    0.363906
C      -2.654825   -2.472273    0.349926
N      -2.042855   -2.796785   -0.948870
C      -1.220781   -2.142013    0.100832
H       0.790085    1.617899   -0.042665
H      -2.575668    0.934530    0.567080
H      -4.232734    0.217434   -0.909153
H      -4.275289   -1.069424    1.052578
H      -2.951871   -3.268921    1.022755
H      -1.801326   -3.786035   -0.960871
H      -0.388567   -2.681799    0.537697
