18

O       0.145056    1.369287   -0.135971
C       0.016176   -0.022920    0.009902
C       0.381629   -0.632846    1.396998
C      -0.727683    0.005577    2.296887
C      -1.975052    0.022704    1.357983
C      -1.428344   -0.608035    0.034646
C      -1.095343   -2.053344    0.335709
C      -0.025003   -2.068017    1.141306
H      -0.365739    1.808916    0.550917
H       0.613202   -0.463670   -0.791315
H       1.400201   -0.467372    1.749094
H      -0.890739   -0.573655    3.207695
H      -0.440067    1.016401    2.608573
H      -2.815271   -0.547208    1.759108
H      -2.336325    1.042439    1.181193
H      -2.045427   -0.420142   -0.844414
H      -1.674691   -2.903345   -0.003242
H       0.446029   -2.932414    1.592946
