15

O       0.095067    1.408007    0.140698
C      -0.009467    0.020953   -0.151756
C      -1.450104   -0.353751   -0.049390
O      -1.891571   -1.570231   -0.646076
C      -2.564133   -0.357488   -0.999373
C      -3.559509    0.029162    0.152883
N      -3.479127   -1.018942    1.199365
C      -2.439008    0.033390    1.116497
H       1.026978    1.621594    0.242050
H       0.347952   -0.222237   -1.163440
H       0.573902   -0.582717    0.562117
H      -2.625344   -0.092463   -2.047959
H      -4.404221    0.698288    0.062405
H      -4.119291   -0.731473    1.940975
H      -2.219630    0.713704    1.927353
