21

C      -0.223876    1.548382    0.001566
C       0.031044    0.043269   -0.008566
C       0.954714   -0.480859   -1.152371
C       2.001603   -1.304652   -0.332326
O       1.193197   -1.815425    0.733336
C       0.790243   -0.534175    1.239308
C       2.125014    0.186266    1.371812
C       2.892481   -0.288792    0.386699
C       4.258240    0.100373   -0.065707
H       0.714410    2.110954    0.038759
H      -0.763900    1.860275   -0.898522
H      -0.829310    1.844334    0.866212
H      -0.927984   -0.481497   -0.061163
H       0.410024   -1.128275   -1.843567
H       1.418397    0.323397   -1.731032
H       2.498710   -2.115473   -0.865829
H       0.186088   -0.647202    2.139702
H       2.348034    0.985923    2.065731
H       4.688491    0.878503    0.570637
H       4.939265   -0.760071   -0.062706
H       4.241794    0.479010   -1.096310
