15

C      -0.020286    1.426312    0.007078
C       0.015627   -0.026640    0.006856
C       0.060194   -1.232586    0.007455
C       0.091918   -2.642886    0.007086
N       1.170355   -3.423496    0.062840
C       0.699165   -4.695606    0.036149
O       1.530163   -5.758568    0.078445
C      -0.674565   -4.729663   -0.036358
N      -1.042093   -3.400134   -0.053822
H       0.993300    1.838556    0.055750
H      -0.494183    1.815798   -0.901092
H      -0.578177    1.813527    0.867246
H       2.423990   -5.397667    0.126116
H      -1.384855   -5.535822   -0.074987
H      -1.979665   -3.039039   -0.102747
