21

C      -0.088811    1.567194    0.023704
C       1.294580    2.222980    0.046766
O       2.071791    1.637595    1.081767
C       3.388894    1.252419    0.755109
C       3.497269    0.139404   -0.293107
O       2.717224   -0.987143    0.086581
C       1.735732   -1.366623   -0.843662
O       0.801841   -0.362415   -1.125081
C      -0.000831    0.042792   -0.012092
H      -0.656185    1.855008    0.916739
H      -0.640584    1.941488   -0.846708
H       1.772160    2.092116   -0.929509
H       1.202250    3.303844    0.226824
H       3.994901    2.109163    0.413420
H       3.818946    0.896009    1.696691
H       3.190235    0.499471   -1.280930
H       4.552994   -0.160143   -0.362102
H       2.179570   -1.618861   -1.817002
H       1.264588   -2.256410   -0.404386
H       0.451301   -0.309075    0.918660
H      -1.001489   -0.399260   -0.111773
