23

C      -0.153670    1.400987    0.039288
O       0.014812   -0.003145    0.044884
C       0.698338   -0.557463    1.179987
C       2.085215    0.035339    1.369837
C      -0.272918   -0.642797    2.398676
C      -0.763734   -2.015710    1.854493
O      -1.927929   -1.936933    1.062147
C       0.569295   -2.108045    1.044671
C       0.587302   -2.769509   -0.323158
H       0.794341    1.929653   -0.123183
H      -0.826522    1.633858   -0.789848
H      -0.603595    1.770926    0.971295
H       2.049026    1.091104    1.656910
H       2.614441   -0.500783    2.162857
H       2.671151   -0.049120    0.448218
H       0.265551   -0.734857    3.346285
H      -1.033357    0.136495    2.492745
H      -0.947924   -2.804215    2.588191
H      -1.764122   -1.243063    0.409993
H       1.331378   -2.557685    1.691759
H      -0.187768   -2.362886   -0.974795
H       1.553257   -2.625620   -0.818790
H       0.416365   -3.846807   -0.227491
