19

C       0.158230    1.314441    0.535565
C       0.072713   -0.067092   -0.076477
C      -1.038967   -0.802053    0.080267
C      -1.436699   -2.160758   -0.414528
C      -0.411064   -2.927699   -1.249095
C       0.998445   -2.801124   -0.682315
O       1.673607   -1.644846   -1.179879
C       1.283359   -0.377260   -0.910640
O       1.963871    0.518325   -1.348361
H       1.039940    1.406248    1.178687
H       0.267683    2.072171   -0.244590
H      -0.731748    1.534400    1.129701
H      -1.820247   -0.338197    0.682626
H      -1.698741   -2.756786    0.473028
H      -2.380582   -2.065327   -0.969203
H      -0.699140   -3.983609   -1.290618
H      -0.388349   -2.565739   -2.282778
H       0.987631   -2.791443    0.415144
H       1.630492   -3.630385   -1.007510
