17

C       0.001384    1.535823    0.169721
C      -0.028743    0.007824   -0.029546
C      -1.417772   -0.542320   -0.057730
C      -2.150636   -0.983374   -1.091413
C      -3.492060   -1.417688   -0.610956
O      -4.424517   -1.870235   -1.230406
N      -3.466583   -1.191020    0.770908
C      -2.244674   -0.670592    1.182735
N      -1.833687   -0.353566    2.345460
H       1.034859    1.893849    0.182669
H      -0.526991    2.047743   -0.640373
H      -0.469220    1.806808    1.117377
H       0.480145   -0.257485   -0.961768
H       0.517269   -0.465044    0.793829
H      -1.870093   -1.043813   -2.133324
H      -4.245538   -1.404613    1.371823
H      -2.543141   -0.521782    3.061136
