17

C      -0.202478    1.328646    0.017017
C       0.093407   -0.152077    0.092372
C       1.496342   -0.611312   -0.226652
C       0.996208   -0.656753    1.220844
C       1.072427   -2.164552    1.094291
C       0.540354   -3.430014    1.215907
C       0.794965   -4.003375   -0.067265
N       1.356710   -3.157028   -0.937343
N       1.593035   -2.075747   -0.161637
H       0.662902    1.925790    0.323868
H      -0.467666    1.621409   -1.003966
H      -1.039007    1.592577    0.671793
H      -0.718426   -0.806582   -0.214381
H       2.266051   -0.004127   -0.684414
H       1.305632   -0.034342    2.048698
H       0.063097   -3.899951    2.059653
H       0.600337   -5.022405   -0.373836
