19

C      -0.056859    1.651805    0.158983
C       0.037871    0.137234    0.047850
C       1.133425   -0.456984   -0.870892
O       1.624584   -1.298858    0.191611
C       0.808564   -0.609985    1.162875
C      -1.333509   -0.531789   -0.202073
O      -2.227304   -0.320392    0.887947
C      -1.923024   -0.118799   -1.479013
C      -2.414275    0.256039   -2.510724
H       0.930127    2.090997    0.330856
H      -0.471337    2.091758   -0.753760
H      -0.696013    1.941720    1.000160
H       0.795066   -1.035144   -1.738799
H       1.885546    0.273296   -1.199528
H       1.408127    0.045947    1.808663
H       0.227875   -1.296760    1.787801
H      -1.168684   -1.616237   -0.226587
H      -2.635984    0.543587    0.770635
H      -2.853209    0.567816   -3.426591
