18

O      -0.093136    0.076366   -0.456430
C      -0.093496    1.222548   -0.117252
C      -1.167114    2.305340    0.139203
C       0.021212    3.292775    0.092993
N       0.989309    2.131966    0.063650
C       1.628732    2.628511   -1.203608
C       0.575026    3.751846   -1.266088
C      -0.203178    4.209429   -2.465578
C       0.746996    5.153012   -1.764771
H      -1.910128    2.379650   -0.657509
H      -1.677022    2.238329    1.103568
H       0.123660    3.994671    0.923706
H       2.654216    2.968029   -1.032181
H       1.621028    1.884400   -2.005354
H       0.083113    3.819009   -3.436810
H      -1.269374    4.376872   -2.349289
H       0.324313    5.959651   -1.174137
H       1.678975    5.404701   -2.260933
