25

C       3.719486    0.319765   -0.733561
C       2.915115   -0.966849   -0.647166
O       2.301096   -1.016532    0.633862
C       1.681377   -2.232296    0.960677
C       0.513475   -2.615124    0.075387
C       2.549378   -3.317635    1.580141
C       4.051787   -3.180106    1.706437
C       1.597512   -2.495365    2.443311
C       2.086762   -1.489547    3.463528
H       4.508771    0.336679    0.023669
H       4.182887    0.414331   -1.720378
H       3.071943    1.186055   -0.570230
H       2.153019   -0.987925   -1.440242
H       3.563317   -1.843158   -0.793624
H       0.827445   -2.848575   -0.947826
H       0.009696   -3.500728    0.472438
H      -0.215919   -1.798690    0.030307
H       2.219304   -4.335021    1.380616
H       4.359524   -2.132804    1.732714
H       4.416195   -3.659870    2.621957
H       4.562187   -3.657029    0.862455
H       0.697928   -3.022640    2.753539
H       2.886291   -0.863563    3.065418
H       1.271212   -0.822876    3.764083
H       2.454224   -1.990359    4.366176
