21

C      -0.075767    1.392223    0.123255
C      -0.091096   -0.123746   -0.076878
O       0.562736   -0.569760   -1.246452
C      -0.159677   -0.379020   -2.452744
C       0.620513   -0.984357   -3.586110
C       0.526851   -2.461980   -3.860901
C      -0.110076   -1.478114   -4.809693
C       0.587477   -0.855664    1.078597
O       0.544317   -0.499355    2.226360
H       0.944585    1.772145    0.018311
H      -0.716457    1.901917   -0.600202
H      -0.430111    1.623097    1.130714
H      -1.140136   -0.479763   -0.077421
H      -1.151148   -0.858433   -2.376116
H      -0.329819    0.692743   -2.637290
H       1.588396   -0.520403   -3.751244
H       1.422843   -2.981807   -4.180294
H      -0.126486   -3.052101   -3.226751
H      -1.193176   -1.409557   -4.819480
H       0.350065   -1.317955   -5.778080
H       1.122194   -1.775858    0.756816
