19

C      -0.110011    1.184386   -1.743674
C      -0.047244   -0.114205   -0.963659
C       1.257526   -0.658534   -0.377484
C       2.561520    0.036547   -0.552335
O       3.617812   -0.548024   -0.467196
C       0.129666   -0.149440    0.525906
C       0.228573    1.074673    1.381501
C       1.345571    1.311338    2.308170
O       1.225133    2.053817    1.088634
H       0.471120    1.981163   -1.276924
H       0.257106    1.045041   -2.765697
H      -1.147667    1.528786   -1.809299
H      -0.692078   -0.891679   -1.365640
H       1.384988   -1.736583   -0.376866
H       2.524201    1.114935   -0.784927
H      -0.401110   -0.947187    1.041939
H      -0.738194    1.506952    1.648221
H       1.182818    1.888292    3.216379
H       2.171854    0.603784    2.337853
