23

C      -0.315119    1.534883   -0.122138
C       0.050372    0.044145    0.003941
C       0.791738   -0.490275   -1.187538
C       2.066369   -0.909467   -1.257553
C       3.098757   -0.952367   -0.173585
C       2.423094   -1.333606   -2.670445
C       1.047343   -1.515955   -3.348314
O       0.604350   -2.866089   -3.273074
C       0.122576   -0.570796   -2.549492
H       0.584468    2.150995   -0.219433
H      -0.942405    1.719719   -0.999738
H      -0.866818    1.875774    0.759413
H       0.635114   -0.107010    0.917189
H      -0.877460   -0.531054    0.134600
H       3.497798   -1.967359   -0.048867
H       3.956737   -0.315290   -0.426096
H       2.712445   -0.620896    0.793194
H       3.021746   -0.557837   -3.170591
H       3.005206   -2.261408   -2.720082
H       1.067049   -1.286334   -4.416435
H       0.574338   -3.099989   -2.337981
H      -0.899768   -0.966010   -2.517548
H       0.063952    0.421024   -3.020045
