20

C       0.021119    1.507971    0.026819
C       0.041037   -0.006297   -0.014187
C       0.687785   -0.633342   -1.222065
C       1.392708   -0.654125    0.140876
N       1.409167   -2.135670    0.171252
C       0.246864   -2.824253    0.828913
C      -0.469695   -2.985369   -0.551839
O      -1.744814   -2.411780   -0.729010
C       0.701911   -2.163785   -1.157852
H       0.937099    1.930425   -0.400924
H      -0.824654    1.906843   -0.543414
H      -0.064513    1.873575    1.055761
H      -0.844403   -0.476677    0.397890
H       0.920748   -0.057573   -2.109680
H       2.253515   -0.098110    0.499060
H       0.549977   -3.760532    1.307285
H      -0.302133   -2.214626    1.552730
H      -0.458794   -4.025264   -0.904763
H      -2.399189   -3.014058   -0.361186
H       1.245921   -2.638346   -1.979854
