23

O      -0.075975    1.442972    0.010540
C       0.012606    0.023118    0.002064
C       0.752883   -0.502975    1.246169
C       0.768934   -2.059744    1.239196
C       0.034081   -2.576222   -0.012103
C      -1.417785   -2.062881    0.004563
C      -1.427100   -0.507994    0.012935
C       0.744882   -2.046256   -1.271630
C       0.728976   -0.489502   -1.261507
H       0.821540    1.793518    0.003807
H       1.774767   -0.102405    1.250026
H       0.258190   -0.108982    2.139451
H       1.797196   -2.436957    1.246518
H       0.287399   -2.453786    2.140517
H       0.039681   -3.671642   -0.018042
H      -1.954610   -2.447391   -0.869320
H      -1.937774   -2.456735    0.884445
H      -1.937385   -0.113715    0.897263
H      -1.954079   -0.104370   -0.857274
H       1.772746   -2.423338   -1.302756
H       0.246066   -2.430568   -2.167740
H       0.217447   -0.085911   -2.140913
H       1.750676   -0.088890   -1.280486
