18

O      -0.645820    0.815229    0.579627
C       0.198132    0.962643   -0.270787
C       1.339068    1.934433   -0.209654
C       1.108914    3.413028   -0.644570
C       0.325848    3.713601    0.670893
C       0.659172    5.142773    1.076804
C       2.157074    5.135758    0.665970
N       2.376118    3.769798    0.130310
C       1.562998    2.827295    1.024663
H       0.177092    0.347912   -1.200389
H       2.246526    1.507210   -0.646865
H       0.931362    3.792699   -1.653272
H      -0.683171    3.335837    0.825326
H       0.065772    5.882002    0.529896
H       0.505815    5.317006    2.146098
H       2.396037    5.868081   -0.110531
H       2.837115    5.301851    1.506318
H       1.921090    2.527572    2.011130
