17

C       0.228088    1.590283    0.294017
C      -0.048383    0.088476    0.113152
C       0.639951   -0.484864   -1.142860
O       1.941452   -0.926920   -0.724428
C       1.990766   -1.109428    0.620238
O       2.964509   -1.508568    1.185871
C       0.638143   -0.737094    1.227133
C      -1.548067   -0.154901    0.113725
O      -2.140139   -0.835874   -0.683115
H       1.304675    1.778289    0.349978
H      -0.173105    2.169773   -0.543432
H      -0.226694    1.965013    1.216973
H       0.077905   -1.331079   -1.547273
H       0.779552    0.260149   -1.928803
H       0.775754   -0.203580    2.168541
H       0.103275   -1.669141    1.443749
H      -2.086889    0.352837    0.946151
