17

C       0.155089    1.372674    0.061073
O      -0.177960    0.035693    0.412518
C       0.777324   -0.569107    1.222270
C       0.439593   -2.069592    1.530515
N       1.795577   -2.389674    1.037098
C       2.041888   -1.119355    0.534243
N       2.899821   -0.567956   -0.213412
C       0.148551   -2.460378    2.898411
C      -0.105075   -2.780720    4.028561
H       1.096186    1.413794   -0.497664
H      -0.662301    1.745261   -0.559725
H       0.242227    2.005083    0.957506
H       0.993346    0.019855    2.124389
H      -0.357349   -2.398220    0.853342
H       2.106778   -3.277685    0.669921
H       3.584510   -1.236590   -0.572129
H      -0.326060   -3.062407    5.028510
