19

C      -0.240919    1.442397    0.068978
N       0.108292    0.033425    0.010524
C       1.204213   -0.413254   -0.894491
C       1.894200   -1.136698    0.271217
C       2.463015   -2.522643    0.219003
C       2.216018   -0.126057    1.335561
C       0.772300   -0.571419    1.160988
C       0.028433   -1.189702    2.214750
N      -0.563432   -1.692709    3.073130
H       0.609558    2.113286    0.280784
H      -0.679406    1.741468   -0.887967
H      -0.996489    1.591591    0.846217
H       0.833436   -1.075130   -1.683838
H       1.790536    0.396215   -1.348666
H       3.427346   -2.527283   -0.302420
H       2.627486   -2.920576    1.224807
H       1.791363   -3.206812   -0.309345
H       2.712000   -0.520001    2.216780
H       2.490443    0.893548    1.078532
