20

C       0.014014    1.532052   -0.040468
C       0.000213    0.034530    0.012063
C       0.483076   -1.023809   -0.970247
C       1.233762   -1.766527    0.133534
C       0.478243   -0.885368    1.181919
C      -0.784857   -1.591160    1.691567
C      -1.602024   -1.863269    0.397703
C      -0.996809   -0.896454   -0.621292
H       1.016699    1.935946    0.143677
H      -0.311703    1.892890   -1.022130
H      -0.658881    1.966932    0.709176
H       0.820813   -0.892841   -1.993099
H       1.105059   -2.853253    0.210958
H       2.303546   -1.541989    0.110311
H       1.096679   -0.436867    1.960819
H      -0.557513   -2.505388    2.250084
H      -1.341325   -0.926468    2.362979
H      -1.513683   -2.905898    0.072753
H      -2.668988   -1.668153    0.543493
H      -1.619981   -0.508531   -1.420914
