15

O       0.007953    0.036793    0.462531
C      -0.013415    1.168392    0.047099
C      -1.319719    1.930565   -0.162022
O      -1.215763    3.002348   -1.086161
C      -0.062073    3.779303   -0.863804
O       1.106393    3.034681   -1.117400
C       1.265001    1.966710   -0.196600
C      -0.090133    4.932055   -1.757154
C      -0.113022    5.906392   -2.455660
H      -2.086108    1.245673   -0.529876
H      -1.641609    2.297453    0.829347
H      -0.052613    4.120735    0.191229
H       1.602823    2.343008    0.785900
H       2.040191    1.303383   -0.584952
H      -0.133385    6.761761   -3.085543
