19

C       0.332392    1.331460   -0.085887
N      -0.026980   -0.079528    0.010912
C       0.626079   -0.714796    1.147343
C      -1.476265   -0.276181    0.035829
C      -2.087198   -0.010675   -1.303916
C      -3.277819    0.525267   -1.737945
N      -3.320878    0.470850   -3.100207
N      -2.217983   -0.064829   -3.539249
N      -1.473617   -0.364916   -2.458576
H       1.415558    1.427096   -0.205227
H      -0.149418    1.783522   -0.956491
H       0.033154    1.908273    0.808954
H       0.323741   -0.283448    2.119818
H       0.393860   -1.784054    1.162433
H       1.710456   -0.603120    1.054432
H      -1.662989   -1.319760    0.319159
H      -1.982668    0.347465    0.795481
H      -4.090362    0.937342   -1.161460
H      -0.547782   -0.752484   -2.555493
