15

N      -0.056182   -1.154337   -0.082671
C      -0.020904   -0.000607   -0.023569
C      -0.031450    1.449326   -0.005907
C      -0.057451    2.085886    1.420365
N       1.405207    1.729683    1.491086
C       1.381949    2.113286    0.033845
C       1.025393    3.626701    0.080407
O      -0.329078    3.959711   -0.265268
C      -0.027549    3.606655    1.094665
H      -0.737548    1.847463   -0.731071
H      -0.710310    1.724376    2.212333
H       1.943017    2.384927    2.062356
H       2.204656    1.779886   -0.595539
H       1.768655    4.403338   -0.062965
H      -0.213794    4.365599    1.846646
