20

C      -0.531955    0.754407   -0.409556
O       0.741992    0.180716   -0.176860
C       1.136036   -0.809862   -1.097467
C       0.632767   -2.226952   -0.753558
C       0.973079   -2.532913    0.703979
O       2.061882   -2.891549    1.067549
N      -0.806931   -2.357260   -0.945447
C      -1.258486   -2.686322   -2.293766
C      -1.308651   -3.705165   -1.210203
H      -0.600163    1.167669   -1.427987
H      -1.341283    0.029732   -0.269058
H      -0.642232    1.572450    0.306862
H       0.821506   -0.552055   -2.121354
H       2.230423   -0.838128   -1.070978
H       1.208724   -2.934138   -1.378515
H       0.128467   -2.389457    1.411011
H      -2.164569   -2.187383   -2.624485
H      -0.503390   -2.819748   -3.066752
H      -0.583505   -4.516026   -1.257431
H      -2.250506   -3.960468   -0.734487
