16

C      -0.014268    1.513971   -0.017527
C      -0.013590    0.010182    0.006585
C      -0.013048   -0.727772   -1.165822
F      -0.004330   -0.094784   -2.353667
C      -0.012054   -2.122426   -1.171303
N      -0.075571   -2.834192   -2.364181
C      -0.001282   -2.732141    0.090441
N      -0.000484   -2.063515    1.240868
C      -0.009817   -0.731301    1.192165
H       0.866087    1.906597   -0.537432
H      -0.893049    1.905113   -0.541024
H      -0.016386    1.914127    0.999072
H       0.249955   -2.321878   -3.170844
H       0.311038   -3.765699   -2.321705
H       0.005188   -3.819302    0.152525
H      -0.011931   -0.208955    2.146042
