13

O       0.075401   -0.056062   -0.002044
C       0.060403    1.150934    0.008607
C       1.244862    2.009030    0.002006
C       1.347449    3.381186    0.012741
C       2.731695    3.670952   -0.001237
C       3.375744    2.455090   -0.019432
O       2.475203    1.443900   -0.017371
C       4.804808    2.144081   -0.039126
O       5.274969    1.032366   -0.054100
H      -0.885742    1.733586    0.024792
H       0.524756    4.079353    0.028560
H       3.205468    4.640510    0.001497
H       5.438009    3.057316   -0.038623
