17

O       0.120545    1.384075    0.192856
C      -0.015492   -0.000989    0.026524
C      -1.404998   -0.651743   -0.032824
C      -2.044046   -0.454895   -1.411566
C      -1.521162    0.648354   -2.312795
O      -0.091007    0.449318   -2.366524
C       0.249623   -0.557258   -1.408113
C      -0.974228   -1.486337   -1.227023
O      -1.054786   -2.848154   -1.403638
H       0.226977    1.745291   -0.697829
H       0.599082   -0.514048    0.774627
H      -2.016021   -0.945611    0.812181
H      -3.072552   -0.784108   -1.501855
H      -1.924276    0.568344   -3.330054
H      -1.738291    1.653822   -1.932804
H       1.230144   -0.962337   -1.652518
H      -1.172959   -3.030756   -2.342858
