18

C      -0.047097    1.514997   -0.019579
C       0.026567    0.015472    0.020102
C       1.301517   -0.714720   -0.274681
C       0.728949   -0.769174    1.138316
O       1.435710   -0.243264    2.203286
C      -0.170459   -1.908452    1.427321
O      -0.139579   -2.546773    2.456534
C      -1.182197   -2.013000    0.281363
N      -1.178282   -0.704113   -0.404518
H       0.874742    1.954283    0.368439
H      -0.198266    1.868022   -1.045116
H      -0.876057    1.884140    0.595688
H       1.300010   -1.595290   -0.909771
H       2.195465   -0.103555   -0.340152
H       1.291840   -0.865861    2.933025
H      -0.883419   -2.821754   -0.398703
H      -2.171077   -2.268180    0.667264
H      -1.983539   -0.174315   -0.084928
