17

O      -0.479898    0.671490    0.716129
C       0.218305    0.982449   -0.218262
C       1.384922    1.894129   -0.119516
C       1.890144    2.353479    1.237616
C       2.760299    3.596131    0.937886
C       2.168268    4.204755   -0.354688
C       1.569951    3.024220   -1.104922
N       2.340508    1.797979   -1.245705
H       0.031982    0.607055   -1.248291
H       1.021438    2.605823    1.854171
H       2.439376    1.570731    1.770493
H       2.768655    4.308323    1.766013
H       3.803051    3.302888    0.777011
H       1.363891    4.912560   -0.122507
H       2.912108    4.747411   -0.948134
H       0.858999    3.210150   -1.905259
H       3.296066    1.905978   -0.913567
