23

C      -0.042920    1.522339   -0.020359
C      -0.024650    0.006390    0.013174
C      -0.861768   -0.684058    1.059656
C       0.644823   -0.688081    1.188675
C       1.433012   -1.986726    1.011176
C       1.724129   -2.324870   -0.459633
C       0.481701   -2.113978   -1.329728
C       0.085630   -0.633143   -1.360242
O      -1.164612   -0.429850   -2.020217
H       0.888939    1.921664   -0.439539
H      -0.871213    1.880577   -0.639571
H      -0.162537    1.940398    0.984091
H      -1.440468   -0.061488    1.734178
H      -1.348783   -1.618313    0.799775
H       1.045803   -0.015427    1.941906
H       2.377726   -1.914954    1.560345
H       0.879919   -2.817294    1.468501
H       2.531563   -1.680161   -0.832318
H       2.085343   -3.355480   -0.543699
H       0.667882   -2.449857   -2.357959
H      -0.359839   -2.709790   -0.955295
H       0.879099   -0.091232   -1.905618
H      -1.074798   -0.751573   -2.923242
