17

C      -0.044167    1.586775   -0.043358
C       1.501386    1.361590    0.008802
C       1.192015    0.178229    0.981500
C      -0.049907    0.010295    0.022772
C       0.665769   -0.303940   -1.272278
C       0.826163   -1.008584   -2.433213
N       1.934703   -0.531804   -3.114721
C       2.432679    0.441865   -2.377761
N       1.694250    0.615159   -1.249810
H      -0.433531    2.053481    0.864244
H      -0.449641    2.060812   -0.939176
H       2.233549    2.142622    0.199079
H       1.917479   -0.636369    1.023274
H       0.915666    0.516158    1.982798
H      -0.931123   -0.561318    0.300075
H       0.233042   -1.817671   -2.829411
H       3.303472    1.033725   -2.614651
