17

O       0.812913   -0.239913   -0.035598
C       0.435902    0.903571   -0.101884
C       1.340666    2.102132   -0.155000
C       0.804271    3.403934   -0.822439
C       1.245737    4.230540    0.420200
C       1.436970    2.910420    1.168746
C       0.900505    2.494423    2.487715
N       2.348056    2.691054    2.274122
H      -0.651845    1.151970   -0.081344
H       2.328740    1.798676   -0.512586
H       1.252615    3.668518   -1.780824
H      -0.283149    3.375472   -0.941006
H       2.196602    4.749316    0.270342
H       0.520883    4.936099    0.832773
H       0.430737    3.228279    3.137451
H       0.524098    1.480418    2.598931
H       2.818850    1.793296    2.182484
