17

C       0.036753    1.504617    0.417119
C      -0.021973    0.046631    0.064214
C      -1.143958   -0.677899    0.011024
C      -1.198662   -2.130809   -0.341052
C       0.132786   -2.784985   -0.651658
N       0.165177   -4.019450   -0.960125
N       1.241919   -1.947806   -0.569033
C       1.281463   -0.596482   -0.240071
O       2.342801   -0.004630   -0.212739
H       0.672442    1.667973    1.293079
H       0.482865    2.084681   -0.396892
H      -0.961487    1.896689    0.625753
H      -2.097738   -0.205225    0.234238
H      -1.670490   -2.698476    0.470944
H      -1.858398   -2.285550   -1.204177
H       1.117006   -4.341673   -1.146206
H       2.151469   -2.344502   -0.768668
