19

C       0.229027   -1.010414    1.852492
C       0.028485   -0.505189    0.418242
C      -1.383344   -0.691438   -0.119320
C      -2.480754    0.082986    0.611153
C      -2.287675    1.534040    0.549920
N      -2.118857    2.676108    0.497392
C      -1.564547   -0.884936   -1.603949
C      -1.772348   -2.046505   -0.660367
H       1.275833   -0.910363    2.153921
H      -0.368944   -0.443768    2.573711
H      -0.048110   -2.066109    1.942885
H       0.298836    0.556656    0.359532
H       0.719429   -1.033147   -0.249148
H      -3.458863   -0.150637    0.176909
H      -2.530697   -0.211999    1.665810
H      -2.437649   -0.449611   -2.078593
H      -0.677053   -0.881763   -2.227179
H      -1.022477   -2.830140   -0.640145
H      -2.785101   -2.401774   -0.500264
