18

C       0.009538    1.548430    0.024214
C       0.015653    0.041375   -0.009450
C       0.433051   -0.799409   -1.265390
C      -0.347525   -1.972902   -0.593196
C       0.405449   -2.167594    0.731142
N       1.786905   -1.635413    0.758167
C       0.660122   -0.755561    1.141296
C      -1.292578   -0.814564   -0.137704
O      -2.464637   -0.608932   -0.084223
H       1.024334    1.951316   -0.059137
H      -0.588718    1.957017   -0.796079
H      -0.420993    1.916704    0.961770
H      -0.055963   -0.444823   -2.174347
H       1.499613   -0.951373   -1.411322
H      -0.698944   -2.841383   -1.144317
H       0.104683   -2.940757    1.427467
H       2.234119   -1.965897    1.610359
H       0.560858   -0.406451    2.162703
