18

C       0.065169   -1.231960   -0.408154
C       0.052573   -0.049512   -0.190755
C      -0.017194    1.364927    0.089964
C       0.253677    2.343842   -1.015072
N       1.268956    2.088394   -0.005037
C       1.544480    3.155609    0.962834
C       0.354624    3.732820    1.681410
C      -0.811930    3.099146    1.763036
C      -1.043433    1.741975    1.161622
H       0.095151   -2.274299   -0.608051
H       0.484525    1.980594   -2.012249
H      -0.298150    3.281385   -0.973669
H       2.256464    2.751330    1.696365
H       2.084948    3.946208    0.426513
H       0.490880    4.701581    2.155311
H      -1.643254    3.543554    2.303427
H      -2.051025    1.673699    0.732717
H      -1.010855    0.981555    1.953575
