22

C      -0.238971    1.524317   -0.020053
C      -0.014265    0.011511    0.003204
C      -1.316383   -0.742541   -0.246318
C       1.199554   -0.417040   -0.892453
C       2.048118   -0.550331    0.377244
C       3.274277   -1.383391    0.593610
C       3.365380    0.126558    0.628632
C       0.801559   -0.443021    1.262983
H       0.694989    2.067233    0.158944
H      -0.634104    1.848462   -0.989982
H      -0.955778    1.827464    0.752120
H      -1.743920   -0.481738   -1.221922
H      -1.158302   -1.826223   -0.230191
H      -2.065212   -0.502712    0.518108
H       1.030876   -1.374347   -1.397481
H       1.532172    0.314450   -1.635959
H       3.368831   -1.922509    1.531368
H       3.699761   -1.900906   -0.260861
H       3.851765    0.627828   -0.202768
H       3.520673    0.606215    1.590339
H       0.843616    0.269502    2.093077
H       0.467793   -1.411104    1.652028
