18

C      -0.681297    1.471577    0.146427
C      -0.503746    0.041574   -0.326932
O      -1.451698   -0.767819    0.390078
C      -1.470308   -2.079111    0.087513
N      -0.687142   -2.591628   -0.771824
N      -2.424424   -2.692975    0.893509
C      -2.871880   -4.037539    0.630292
C      -3.690537   -4.192463   -0.591324
N      -4.343914   -4.298924   -1.537985
H       0.025014    2.123330   -0.376124
H      -1.694702    1.828945   -0.057776
H      -0.496400    1.554882    1.221249
H      -0.687002   -0.063866   -1.400570
H       0.504879   -0.334884   -0.130397
H      -0.846149   -3.583579   -0.915475
H      -3.113365   -2.056162    1.265680
H      -2.007379   -4.706364    0.558437
H      -3.460172   -4.385153    1.484634
