14

O       0.392035    0.848613    0.814942
C      -0.031173    0.153383   -0.325322
C      -1.421141   -0.425494   -0.179595
N      -2.035399   -0.200681    0.983398
C      -3.263539   -0.706872    1.125114
C      -3.878096   -1.433164    0.116409
C      -3.144278   -1.606513   -1.055161
N      -1.919365   -1.109881   -1.215011
H      -0.340990    0.786059    1.446091
H      -0.030449    0.809876   -1.209597
H       0.656261   -0.674400   -0.559603
H      -3.759934   -0.521149    2.074636
H      -4.873559   -1.843197    0.232886
H      -3.554315   -2.164385   -1.894339
