25

C      -1.688235   -0.332373   -0.841993
C      -0.233860   -0.199196   -0.377656
C       0.822683   -0.623983   -1.419068
C       2.263106   -0.271951   -0.962410
C       2.561010    1.227853   -0.908783
O       2.591776   -0.906571    0.274603
C       0.744206   -2.107330   -1.744706
C      -0.171882   -2.644920   -2.815517
C       1.320264   -2.636777   -3.034966
H      -1.868519    0.252838   -1.750966
H      -1.949907   -1.371006   -1.058188
H      -2.375717    0.033045   -0.072304
H      -0.058347    0.844483   -0.088909
H      -0.093608   -0.798792    0.531538
H       0.636635   -0.061565   -2.346785
H       2.948284   -0.729233   -1.685321
H       1.935996    1.743228   -0.170433
H       3.606359    1.387854   -0.630338
H       2.385418    1.701085   -1.880539
H       2.118490   -0.443617    0.973708
H       0.889715   -2.744151   -0.876335
H      -0.665498   -3.596278   -2.647616
H      -0.765389   -1.934614   -3.381597
H       1.718806   -1.919613   -3.746326
H       1.853216   -3.580844   -3.015893
