19

C       0.034435    1.489187    0.013496
C      -0.031540   -0.003547   -0.036189
C      -0.050046   -0.781236   -1.124912
C      -0.030468   -2.223542   -0.754596
N       1.206200   -2.605176    0.000660
C      -0.041153   -2.286559    0.733708
C      -0.734440   -3.360072    1.530981
C      -0.058005   -0.839556    1.234561
H       0.954678    1.829703    0.505289
H       0.006149    1.926893   -0.988125
H      -0.799630    1.905707    0.593416
H      -0.030827   -0.424979   -2.148626
H      -0.507638   -2.977200   -1.373396
H       1.296989   -3.621070   -0.030287
H      -0.753129   -4.308786    0.983761
H      -0.225880   -3.535288    2.486794
H      -1.770373   -3.081984    1.754326
H       0.805003   -0.627171    1.877635
H      -0.957602   -0.628845    1.830842
