21

O      -0.549125    1.251703    0.717356
C      -0.038844    0.090599    0.069178
C       0.824257   -0.780045    1.040356
C      -0.122348   -1.874511    1.438836
C      -1.241939   -1.873197    0.715048
C      -2.205018   -2.950920    1.123879
C      -1.348367   -3.811193    2.106284
C      -0.101263   -2.951250    2.486384
C      -1.272326   -0.777186   -0.309377
H       0.200778    1.784671    1.000341
H       0.536939    0.382482   -0.820451
H       1.723155   -1.172766    0.544041
H       1.175585   -0.171668    1.884787
H      -3.091251   -2.524244    1.614898
H      -2.582570   -3.543335    0.281411
H      -1.916751   -4.129627    2.983919
H      -1.018005   -4.721101    1.596279
H       0.821540   -3.544417    2.486908
H      -0.187510   -2.524912    3.496207
H      -2.173640   -0.155056   -0.273099
H      -1.195397   -1.166918   -1.333346
