15

N      -0.129510    1.455684   -0.109587
C      -0.097500    0.008287   -0.060993
C       0.938824   -0.603122   -0.850457
N       1.773247   -1.077697   -1.496623
C      -0.487286   -0.778486    1.201859
O      -1.407977    0.017020    1.938900
C      -2.393254   -0.074827    0.860143
C      -1.386723   -0.821994   -0.011651
O      -1.696661   -1.848805   -0.863428
H      -0.469555    1.780432    0.794377
H       0.816293    1.811910   -0.208367
H       0.140284   -1.488997    1.725876
H      -3.230304   -0.709469    1.164498
H      -2.743910    0.905904    0.526150
H      -1.544848   -1.568032   -1.773211
