16

C       0.025603   -1.235401    0.023558
C       0.019857   -0.034812    0.058161
C       0.030244    1.424630    0.051711
O      -0.568325    1.910053    1.259685
C      -0.068489    3.222638    1.508202
C       1.346657    3.233965    0.960021
C       2.192320    2.032170    1.296717
C       1.417089    2.065959    0.007701
H       0.028463   -2.297091    0.002378
H      -0.545347    1.777852   -0.821244
H      -0.679358    3.983986    0.996576
H      -0.139956    3.390244    2.587853
H       1.813293    4.184883    0.731961
H       3.268339    2.144004    1.229339
H       1.850115    1.363337    2.080020
H       1.927022    2.116162   -0.946095
