16

C      -0.051098    1.398194   -0.047800
C      -0.028417   -0.090268   -0.012835
O       0.953714   -0.804122   -0.767069
C       0.203398   -2.015895   -0.490619
C       0.443446   -2.253230    1.022179
C      -0.369917   -0.978773    1.233938
C      -1.075895   -1.135533   -0.112246
O      -2.380165   -1.070157   -0.516668
H       0.858693    1.815178    0.396395
H      -0.129950    1.759771   -1.077666
H      -0.910845    1.774099    0.514249
H       0.320034   -2.787030   -1.249068
H      -0.082457   -3.138976    1.390053
H       1.491355   -2.270940    1.335819
H      -0.744138   -0.540086    2.150718
H      -2.894644   -1.713666   -0.015297
