22

C       0.007146    1.372302    0.100991
O      -0.038410   -0.028523   -0.042015
C       0.661557   -0.543142   -1.168335
C       2.162750   -0.630660   -0.872321
C       0.000233   -1.900722   -1.484493
C      -1.491868   -1.730740   -1.793585
C       0.734030   -2.617402   -2.644338
C       0.161023   -3.925327   -2.956365
N      -0.291544   -4.962069   -3.193039
H       1.022651    1.748198    0.293295
H      -0.386393    1.884199   -0.790850
H      -0.620760    1.626294    0.958477
H       0.501282    0.129822   -2.029987
H       2.359379   -1.380374   -0.099164
H       2.741977   -0.884453   -1.764653
H       2.538989    0.330863   -0.512804
H       0.106092   -2.521099   -0.585558
H      -1.989495   -1.221450   -0.967793
H      -1.636272   -1.132503   -2.701787
H      -1.973515   -2.699304   -1.951275
H       0.695821   -2.000745   -3.551717
H       1.791209   -2.768226   -2.407157
