18

O       0.278004    0.028886    0.382856
C       0.089698    1.187435    0.129937
C      -1.246153    1.856353   -0.194628
O      -0.934617    3.187080   -0.559632
C       0.259976    3.556503    0.130897
C       1.149130    2.307018    0.090703
N       2.081899    2.209636    1.190718
C       3.145996    1.217606    1.053089
C       3.450264    2.668722    0.940913
H      -1.767371    1.360327   -1.018342
H      -1.889872    1.808205    0.700102
H       0.679650    4.423779   -0.381884
H       0.055757    3.822267    1.179215
H       1.635591    2.238253   -0.902104
H       3.389270    0.669390    1.957578
H       3.173191    0.624181    0.142948
H       3.684131    3.057690   -0.048836
H       3.919809    3.202046    1.761829
