17

C       0.032346    1.519240    0.096917
C      -0.018743   -0.007348   -0.085027
C      -1.431107   -0.530262   -0.037079
N      -1.994579   -0.666077    1.173147
C      -3.248513   -1.099726    1.221584
C      -3.969745   -1.407213    0.066907
O      -5.247855   -1.850362    0.181158
C      -3.298219   -1.230947   -1.139070
N      -2.040737   -0.796076   -1.197771
H       1.066076    1.877289    0.081625
H      -0.514953    2.026124   -0.704207
H      -0.416626    1.806801    1.052144
H       0.421749   -0.286402   -1.045510
H       0.557568   -0.486533    0.712666
H      -3.712731   -1.215554    2.198513
H      -5.609438   -2.018008   -0.696405
H      -3.792091   -1.449709   -2.087287
