21

C      -0.079510    1.485214   -0.497327
C      -0.056705    0.043969    0.016805
C      -1.454862   -0.577931    0.106591
O      -2.123592   -0.571347   -1.151303
C      -1.415456   -2.000504    0.697213
C      -2.815429   -2.570878    0.769488
O      -3.662015   -2.220286    1.551994
O      -3.013481   -3.509161   -0.179248
C      -4.338934   -4.052973   -0.228808
H       0.933880    1.882461   -0.606507
H      -0.579583    1.538103   -1.467702
H      -0.623618    2.139191    0.192690
H       0.562156   -0.581253   -0.643482
H       0.413977    0.001776    1.007075
H      -2.088438    0.039534    0.754026
H      -1.654194   -1.174277   -1.739483
H      -0.774501   -2.645018    0.087109
H      -1.008971   -1.963749    1.712189
H      -4.597679   -4.526548    0.721498
H      -5.067755   -3.266252   -0.438798
H      -4.328450   -4.789467   -1.032458
