13

C       0.034913    1.434363   -0.013963
C      -0.053360   -0.042636   -0.009529
N      -1.098101   -0.763430   -0.271947
N      -0.616871   -2.049874   -0.120649
C      -0.948813   -3.377513   -0.183393
N       0.119587   -4.085153    0.112106
N       1.196443   -3.233882    0.380550
C       0.690827   -2.048644    0.224731
O       1.086646   -0.751822    0.304926
H       0.784225    1.770872   -0.736955
H      -0.937495    1.849689   -0.278519
H       0.332874    1.802956    0.972330
H      -1.923983   -3.758003   -0.433827
