16

N      -0.051886    1.343671   -0.198761
C      -0.018397   -0.008262   -0.034977
N      -1.070675   -0.749447    0.047195
C      -0.661911   -2.134143    0.062352
C      -0.046842   -2.653370   -1.204667
C       0.849823   -2.212871   -0.044755
C       1.266458   -0.791654   -0.032752
N       2.492241   -0.436404    0.030459
O       2.655016    0.960180    0.092664
H       0.778616    1.858720    0.039076
H      -0.946040    1.782986   -0.045459
H      -1.237020   -2.796123    0.699225
H      -0.071507   -3.721716   -1.393754
H      -0.107327   -2.027052   -2.088558
H       1.462095   -2.951434    0.454233
H       3.611772    1.052254    0.139548
