21

C      -0.041372    1.459714    0.138345
C       1.286689    0.754995    0.037108
C       2.024354    0.385105    1.333668
C       1.053530   -0.554406    2.006541
C      -0.022755   -0.809282    1.255079
C      -1.016157   -1.701921    1.945306
C      -0.206087   -2.197004    3.183305
C       0.986364   -1.205553    3.359231
C      -0.012952   -0.049197   -0.022135
H      -0.355399    1.859090    1.098053
H      -0.347765    2.051770   -0.718524
H       1.870095    0.919670   -0.861322
H       2.988265   -0.099606    1.124382
H       2.253607    1.268816    1.944376
H      -1.915538   -1.141590    2.239380
H      -1.367495   -2.533665    1.323089
H      -0.821899   -2.276095    4.083017
H       0.187825   -3.196974    2.977254
H       1.911166   -1.720446    3.647045
H       0.790194   -0.468091    4.151410
H      -0.381714   -0.488111   -0.943291
