13

O       0.602685    0.830916    0.701535
C       0.219839   -0.276790   -0.032359
C      -1.312531   -0.679035   -0.194938
C      -1.027467   -1.068759   -1.685367
C       0.249483   -0.224100   -1.567923
O       0.875303    0.456922   -2.325815
C      -1.823900   -1.706364    0.689137
N      -2.210614   -2.541059    1.389772
H       0.614292    1.596519    0.114269
H       0.761759   -1.156919    0.335352
H      -1.935714    0.216775   -0.137378
H      -0.815581   -2.134551   -1.802962
H      -1.753231   -0.755498   -2.436065
