20

C      -0.161846    1.569515    0.055889
C       0.005942    0.053319    0.017068
O       0.575489   -0.355379   -1.228385
C       1.596447   -1.348250   -1.037808
C       2.950089   -0.661068   -1.250483
C       3.077625    0.173148    0.044640
N       2.334687   -0.568968    1.097467
C       0.856092   -0.592626    1.096102
C       1.619821   -1.684416    0.456382
H       0.796026    2.092583    0.021879
H      -0.762986    1.898651   -0.796266
H      -0.681633    1.863770    0.973439
H      -0.998046   -0.396799    0.112267
H       1.403066   -2.197222   -1.699609
H       3.750125   -1.407880   -1.307260
H       2.966539   -0.062435   -2.164132
H       4.116371    0.263318    0.374289
H       2.686290    1.184553   -0.081435
H       0.418076   -0.680713    2.087062
H       1.745111   -2.695628    0.829120
