17

C       0.233480    0.591121    0.548891
O      -0.448505    0.316121   -0.660476
C      -1.603019   -0.484478   -0.497912
C      -1.289027   -1.933621   -0.273471
N      -1.242546   -2.840600   -1.247417
N      -0.901469   -3.933993   -0.581771
C      -0.726175   -5.229180   -1.208775
N      -0.742798   -3.742962    0.722973
N      -0.989237   -2.475285    0.934387
H       1.076676    1.236968    0.293128
H      -0.417528    1.117513    1.263922
H       0.608702   -0.319442    1.033201
H      -2.217638   -0.120114    0.338512
H      -2.174475   -0.389928   -1.424329
H       0.061407   -5.169900   -1.962591
H      -0.448038   -5.933403   -0.425917
H      -1.659620   -5.539544   -1.682712
