23

C       0.044565    1.472512    0.095131
C       1.372191    0.773454   -0.024205
C       1.725029    0.154939    1.333548
C       0.417671   -0.707130    1.259136
C       0.669173   -2.211574    1.080277
C      -0.379520   -2.867027    0.169761
C      -0.345846   -2.232057   -1.228603
C      -0.692008   -0.733978   -1.168249
C       0.056187   -0.019461   -0.072526
H      -0.249699    1.930504    1.038577
H      -0.272844    2.027087   -0.783663
H       2.071247    1.006943   -0.819513
H       2.626081   -0.463043    1.325931
H       1.799679    0.866274    2.163335
H      -0.307098   -0.542126    2.066955
H       1.654401   -2.362287    0.618461
H       0.706961   -2.705271    2.058123
H      -0.191711   -3.944353    0.099694
H      -1.382691   -2.751851    0.604259
H       0.658812   -2.363647   -1.652626
H      -1.040820   -2.744602   -1.902943
H      -0.510403   -0.251348   -2.136520
H      -1.771021   -0.634745   -0.976161
