18

C      -0.157897    1.421120    0.068261
N       0.076973    0.001555   -0.094511
C       0.563183   -0.619753    0.882070
O       0.835947   -1.942270    0.788611
C       1.250741   -2.591885    1.965248
C       0.295155   -3.583691    2.692958
C       0.391629   -4.549145    1.487519
C       1.809825   -4.023655    1.819310
O       1.514583   -4.199687    3.260415
H       0.410008    1.975731   -0.687215
H      -1.217301    1.639524   -0.106985
H       0.116501    1.811371    1.062095
H       0.816716   -0.174101    1.856617
H       1.824100   -1.941651    2.631319
H      -0.534103   -3.386023    3.371825
H       0.225995   -5.599110    1.729734
H      -0.059147   -4.237886    0.544834
H       2.783935   -4.350558    1.457272
