18

C      -0.058474    1.534386    0.026763
C       0.010073    0.036171    0.010960
C      -0.888355   -0.882200    0.797903
C       0.599961   -0.927900    1.032611
C       1.360556   -1.668180   -0.113209
N       0.355912   -2.157463   -1.112596
C       0.760461   -0.741179   -1.115840
C       2.666833   -2.209351   -0.028707
C       3.776615   -2.667043    0.070297
H       0.918018    1.983467   -0.190804
H      -0.770595    1.910799   -0.718100
H      -0.380741    1.899264    1.007150
H      -1.441885   -0.385537    1.589694
H      -1.399747   -1.711246    0.326215
H       1.067956   -0.705908    1.982521
H       0.885856   -2.628439   -1.845965
H       1.227376   -0.284495   -1.979749
H       4.755770   -3.069093    0.151985
