20

C       0.080867    1.510965   -0.220762
C      -0.024671    0.015463    0.110729
C      -1.431238   -0.490385    0.108989
C      -2.367825   -0.867330   -1.013195
C      -1.970313   -1.924907   -0.013403
C      -3.218319   -1.511632    0.817056
C      -4.212491   -2.288547    1.608691
C      -2.697054   -0.122237    0.936007
N      -3.609710   -0.480785   -0.214139
H       1.122734    1.844869   -0.202662
H      -0.328341    1.722321   -1.213562
H      -0.476117    2.115561    0.502639
H       0.556567   -0.567234   -0.616075
H       0.435063   -0.178206    1.089576
H      -2.284328   -0.812682   -2.092118
H      -1.421781   -2.849707   -0.130526
H      -3.747593   -2.749201    2.487641
H      -5.015332   -1.627598    1.950254
H      -4.662701   -3.083710    1.003855
H      -2.932425    0.680539    1.626763
