15

O      -0.317580    0.049047    0.172693
C      -0.048603    1.207633    0.002248
C       1.356012    1.719142   -0.304521
C       1.349876    2.820392   -1.332419
N       1.982037    2.588988   -2.488017
C       1.956767    3.576730   -3.385186
C       1.303509    4.780736   -3.152549
C       0.667652    4.906735   -1.923289
N       0.687346    3.938777   -1.006420
H      -0.815651    2.008200    0.073960
H       1.740340    2.127345    0.640605
H       1.987781    0.889246   -0.620070
H       2.477814    3.391043   -4.321828
H       1.288560    5.575355   -3.888298
H       0.127136    5.813096   -1.659275
