16

C       0.132638    1.488190   -0.260044
C      -0.073351    0.037248    0.115867
O       0.597746   -0.870365   -0.829899
C       1.376166   -1.421499    0.154321
O       2.226794   -2.241387    0.043018
C       0.739859   -0.592043    1.277802
C       1.677324    0.288911    2.116222
C       2.387442   -0.478195    3.138152
N       2.931373   -1.078774    3.961067
H       1.193676    1.739628   -0.339949
H      -0.334814    1.690297   -1.227527
H      -0.331007    2.145430    0.482942
H      -1.136940   -0.213226    0.151803
H       0.126836   -1.213238    1.935005
H       2.413895    0.794867    1.484307
H       1.096672    1.070969    2.619147
