19

C      -0.045785    1.526241   -0.076796
C      -0.068895    0.034444   -0.018250
O       0.659476   -0.667992   -1.033155
C      -0.306292   -1.758346   -0.982734
C       0.346328   -3.022831   -0.436493
O       1.187930   -2.735583    0.660669
C       0.610788   -1.958567    1.695872
C      -0.260968   -0.806765    1.227045
C      -1.169894   -1.000306    0.033213
H       0.968170    1.900539    0.103846
H      -0.367803    1.880709   -1.060939
H      -0.705179    1.953426    0.684113
H      -0.769367   -1.923158   -1.960498
H      -0.445464   -3.747616   -0.174923
H       0.995816   -3.483609   -1.187177
H      -0.005924   -2.599058    2.352209
H       1.456286   -1.596730    2.290909
H      -0.719780   -0.254616    2.044650
H      -2.248906   -0.917884    0.037401
