21

C      -0.041286    1.420926    0.040959
C       1.422550    1.954643   -0.005255
C       2.211706    0.720368    0.439788
C       3.672130    0.494422    0.073073
C       4.123853   -0.870893    0.653626
C       3.046415   -1.935595    0.666057
C       1.772958   -1.732230    0.323354
C       1.350877   -0.383389   -0.168794
O       0.022316   -0.009331    0.165606
H      -0.596898    1.803305    0.903742
H      -0.595724    1.694386   -0.866725
H       1.697869    2.246157   -1.024921
H       1.566953    2.824896    0.639804
H       2.106810    0.621114    1.529048
H       3.779366    0.490922   -1.019459
H       4.320347    1.292505    0.450156
H       4.997816   -1.242120    0.103064
H       4.477061   -0.733010    1.686371
H       3.362590   -2.922982    0.995925
H       1.037878   -2.531037    0.348647
H       1.462548   -0.353797   -1.271777
