22

C       0.223934    1.501999    0.163831
C      -0.228426    0.083192   -0.200848
C       0.550008   -0.505825   -1.359243
C       1.884031   -1.188200   -1.120249
C       0.682688   -1.987237   -1.535927
C       0.029391   -3.147894   -0.737801
C      -0.075395   -3.914543   -2.065644
N      -0.903162   -3.079873   -2.973090
C       0.549638   -2.790383   -2.814103
H       1.281524    1.516776    0.447670
H       0.100351    2.184960   -0.683944
H      -0.356641    1.902426    1.001032
H      -0.124507   -0.570540    0.674450
H      -1.297381    0.089960   -0.449915
H       0.475397    0.066969   -2.282159
H       2.683349   -1.042129   -1.840633
H       2.226261   -1.286961   -0.093347
H       0.719716   -3.611314   -0.027942
H      -0.924898   -2.939535   -0.246770
H       0.008482   -4.983385   -2.217190
H      -1.001586   -3.606395   -3.842129
H       1.217161   -2.797684   -3.668000
