15

C       0.058489    1.547854    0.025099
C      -0.007176    0.055883    0.023989
C      -1.080176   -0.769547    0.026045
N      -2.421269   -0.554784    0.068302
C      -0.590157   -2.174618    0.016192
O      -1.236979   -3.182888   -0.013859
O       0.779037   -2.141732    0.031150
C       1.179158   -0.794807    0.029327
N       2.389131   -0.435358    0.024798
H       1.022621    1.879814   -0.365707
H      -0.736644    1.986570   -0.588242
H      -0.044780    1.956338    1.037831
H      -2.784859    0.348439   -0.186529
H      -2.998987   -1.350832   -0.157153
H       3.012552   -1.243017    0.024868
