15

O      -0.443009    0.429719    0.731197
C       0.074667    1.014135   -0.190463
C       1.273896    1.880989   -0.053898
C       1.577009    2.978304   -1.105709
O       2.871198    2.410221   -1.428437
C       2.695533    1.360930   -0.480621
C       3.187541    1.634064    0.970084
O       2.936613    3.007246    1.266636
C       1.844906    2.098694    1.370647
H      -0.317279    0.916770   -1.228282
H       0.910181    2.947466   -1.975769
H       1.657088    3.996576   -0.718971
H       2.877280    0.356314   -0.871213
H       3.976952    1.139515    1.524000
H       1.311496    2.027345    2.309409
