25

C      -0.278031    1.298310   -0.559656
C      -0.259981   -0.169728   -0.118916
C       0.579405   -0.422288    1.156339
C      -0.239982   -0.031186    2.390997
O       0.616436    0.192404    3.505650
C       1.166904   -1.863452    1.192654
C       2.123251   -2.073938    2.374085
C       0.081189   -2.952419    1.185047
O       1.926335   -1.951650   -0.026827
H       0.732321    1.642613   -0.805058
H      -0.900705    1.431703   -1.450157
H      -0.672794    1.962576    0.216866
H      -1.290677   -0.513800    0.043122
H       0.149738   -0.777189   -0.928398
H       1.447651    0.248403    1.126420
H      -0.802132    0.884878    2.158198
H      -0.984211   -0.812169    2.613776
H       0.071420    0.466977    4.248856
H       1.613744   -1.985630    3.334194
H       2.575854   -3.071887    2.309088
H       2.924942   -1.331234    2.349246
H      -0.579570   -2.846786    0.321294
H       0.548694   -3.942508    1.131372
H      -0.526768   -2.932929    2.094799
H       2.369024   -2.806649   -0.028927
