23

C      -0.041141    1.298704   -0.140584
O       0.007863   -0.099284    0.001728
C      -1.270804   -0.700558   -0.018124
C      -1.126284   -2.214911    0.145509
C      -0.465356   -2.551415    1.484544
O      -0.159242   -3.938990    1.503394
C      -2.475345   -2.888918   -0.021814
C      -3.009393   -3.200316   -1.401240
C      -2.574521   -4.316472   -0.486025
H       0.987165    1.668223   -0.118592
H      -0.505199    1.596869   -1.094470
H      -0.607413    1.774802    0.676228
H      -1.899128   -0.285948    0.791458
H      -1.784568   -0.479392   -0.967621
H      -0.453181   -2.570299   -0.645751
H       0.439452   -1.940060    1.596309
H      -1.153030   -2.285428    2.306400
H       0.323836   -4.125411    2.313208
H      -3.216806   -2.577393    0.712003
H      -4.068907   -3.065292   -1.589348
H      -2.376506   -2.966487   -2.251787
H      -1.647597   -4.831760   -0.707404
H      -3.337632   -4.946916   -0.043123
