14

O       0.122067    1.277645   -0.292331
C       0.047347   -0.037888    0.228330
C      -1.358335   -0.595125    0.123117
C      -1.913266   -1.236900   -1.096554
O      -0.864206   -1.934003   -1.822451
C      -0.709405   -2.818173   -0.751876
O      -0.031581   -3.790335   -0.717828
C      -1.701027   -2.098798    0.126022
H       0.016966    1.218268   -1.247752
H       0.765599   -0.709445   -0.258133
H       0.328434    0.036333    1.283294
H      -2.099542   -0.020052    0.675568
H      -2.810758   -0.990732   -1.645871
H      -2.387539   -2.551671    0.825860
