11

C       0.101844    1.419906   -0.058938
N       0.070744   -0.022722   -0.012176
N       0.192901   -0.792524   -1.151781
C       0.116951   -1.993721   -0.707819
O      -0.045847   -2.099852    0.630610
C      -0.079362   -0.784331    1.114854
O      -0.212122   -0.478627    2.265810
H       1.054850    1.771321   -0.463943
H      -0.715312    1.802544   -0.676675
H      -0.015021    1.774557    0.966062
H       0.170003   -2.897715   -1.292195
