17

O       0.541457    0.218950    0.764798
C      -0.131995    0.317706   -0.499051
C      -1.508973   -0.321208   -0.411900
C      -2.174765   -0.982450   -1.659940
O      -1.144640   -1.852977   -2.206582
C      -1.348093   -2.664282   -1.045315
C      -2.715611   -2.138334   -0.731472
C      -1.567587   -1.730929    0.170280
O      -1.346181   -2.098969    1.475476
H       0.094485    0.810101    1.379784
H      -0.178295    1.362617   -0.837689
H       0.481490   -0.242590   -1.207998
H      -2.238966    0.318640    0.097904
H      -2.716128   -0.413618   -2.412527
H      -0.918805   -3.655765   -0.993559
H      -3.683002   -2.593394   -0.573205
H      -0.449196   -1.800439    1.679046
