21

C      -0.407083    1.333187   -0.137141
C       1.017872    1.069483    0.280303
C       0.085113   -0.084815    0.008883
C      -0.351423   -0.967365    1.148678
O      -0.722942   -0.235723    2.348995
C      -1.933192   -1.011616    2.504579
C      -3.186811   -0.297408    1.956863
C      -2.923087   -0.939596    0.556473
C      -1.705357   -1.713290    1.137124
H      -1.075689    1.709052    0.627660
H      -0.595263    1.711338   -1.135985
H       1.815004    1.265533   -0.428064
H       1.270742    1.267566    1.316090
H       0.261886   -0.639116   -0.910142
H       0.466062   -1.665746    1.388437
H      -1.980134   -1.505638    3.478998
H      -4.115359   -0.642199    2.421046
H      -3.145227    0.792067    2.020752
H      -3.728533   -1.598401    0.224698
H      -2.690005   -0.247135   -0.253763
H      -1.674253   -2.792400    0.991458
