18

N       0.537592    0.013051   -0.668534
C      -0.250985    0.168545    0.428150
O      -0.142572    1.093188    1.209668
C      -1.349148   -0.894778    0.595041
C      -0.991646   -2.288124    0.166289
C       0.223446   -3.180549    0.550205
C      -0.528510   -3.838099   -0.625253
C      -1.874070   -3.563285    0.082513
O      -0.638652   -2.508983   -1.278189
H       1.257729    0.697432   -0.830984
H       0.446244   -0.792268   -1.272494
H      -1.631143   -0.893832    1.650838
H      -2.226442   -0.564429    0.024871
H       1.203245   -2.765686    0.313372
H       0.196171   -3.681696    1.520506
H      -0.235678   -4.675975   -1.256304
H      -2.085538   -4.098064    1.011282
H      -2.739781   -3.484893   -0.576124
