18

C      -0.772378    0.874884    0.140160
N       0.485696    0.167793   -0.133989
C       1.062225   -0.492232    0.969152
C       2.017221   -0.129558    1.892520
C       2.214745   -1.245445    2.758412
C       1.370912   -2.255346    2.355519
C       1.151537   -3.628288    2.898288
N       0.676195   -1.781685    1.263322
H      -0.682146    1.654243    0.912528
H      -1.135164    1.333797   -0.784541
H      -1.526193    0.157215    0.476703
H       1.159313    0.806371   -0.538328
H       2.510315    0.829608    1.944725
H       2.894412   -1.300181    3.595990
H       0.118816   -3.782921    3.236871
H       1.370759   -4.410633    2.159857
H       1.807197   -3.795093    3.756248
H       0.045407   -2.314311    0.688641
