17

O       0.163065    1.265949   -0.224938
C       0.009208   -0.119124   -0.295932
C      -1.386127   -0.537913    0.122107
O      -2.206676    0.289062    0.461900
C      -1.708079   -1.997562    0.099126
C      -2.051864   -2.947789    1.281796
C      -1.855560   -3.776098   -0.009249
C      -2.727490   -2.765519   -0.790217
O      -0.658814   -2.954186   -0.327259
H      -0.692638    1.604171    0.083712
H       0.187557   -0.503263   -1.313781
H       0.729463   -0.648712    0.349164
H      -1.263670   -3.052114    2.027549
H      -3.052785   -2.879320    1.711194
H      -1.763400   -4.853877   -0.134067
H      -3.785180   -2.681734   -0.534928
H      -2.531670   -2.710017   -1.861131
