19

O       0.162717    1.373363    0.355246
C       0.105175   -0.016530    0.067481
C      -1.302831   -0.509221   -0.148182
C      -2.118852   -0.962365    1.045554
C      -1.670816   -1.977818    0.022632
C      -2.674600   -2.369648   -1.041790
C      -3.102440   -1.046826   -1.701165
O      -4.064610   -0.899073   -2.406815
C      -2.100407    0.050675   -1.313202
H      -0.390878    1.529931    1.127892
H       0.698228   -0.146205   -0.845581
H       0.588566   -0.612573    0.858953
H      -1.625609   -0.982449    2.012417
H      -3.172555   -0.699853    1.093702
H      -0.911693   -2.694302    0.316539
H      -2.215400   -3.000558   -1.814021
H      -3.553312   -2.906372   -0.671750
H      -2.624513    0.987752   -1.107193
H      -1.448011    0.238139   -2.176910
