17

C       0.022297    1.526650    0.097390
C       0.018323    0.044230   -0.064105
C       0.154437   -0.792704   -1.145655
O       0.359896   -0.689118   -2.487110
C       0.176465   -2.040817   -3.004145
C       0.249616   -3.051986   -1.810694
C       0.065044   -2.101088   -0.666403
N      -0.114805   -2.147800    0.644224
N      -0.134674   -0.836248    0.988903
H       0.873523    1.875900    0.694210
H       0.088941    2.001151   -0.884026
H      -0.892036    1.889341    0.581847
H      -0.807609   -2.082825   -3.485169
H       0.945688   -2.206872   -3.760875
H      -0.524700   -3.819199   -1.893846
H       1.218768   -3.562370   -1.770315
H      -0.294389   -0.594958    1.951826
