19

C      -0.170292    1.374538    0.113328
O       0.374800    0.102889   -0.152640
C       0.773989   -0.581286    0.999272
C      -0.308667   -1.201886    1.955554
C       0.388712   -2.589022    1.811318
C      -0.180662   -3.516510    0.704627
O      -0.724158   -2.679426   -0.317307
C       0.688496   -2.896068   -0.314693
C       1.362413   -1.986734    0.742756
H       0.549305    2.023413    0.638819
H      -0.419737    1.829299   -0.848296
H      -1.084713    1.312559    0.721794
H       1.483521    0.034024    1.577379
H      -0.309660   -0.792349    2.967823
H      -1.317205   -1.175492    1.541255
H       0.767384   -3.080127    2.706130
H      -0.589704   -4.517206    0.792214
H       1.120730   -3.287910   -1.228349
H       2.442844   -2.118456    0.808490
