19

C       0.005220    1.397981   -0.358502
C       0.069787   -0.047525    0.073909
N       1.398692   -0.688493    0.116196
C       0.636495   -0.531754    1.366756
C       1.239268    0.404423    2.393213
C      -0.011488   -1.784605    1.966004
C       0.945352   -2.678697    2.613468
C       1.745843   -3.407780    3.135536
H       0.853882    1.969552    0.021882
H       0.022242    1.467596   -1.451562
H      -0.918739    1.869983   -0.006469
H      -0.747213   -0.654010   -0.319413
H       1.354064   -1.648981   -0.215724
H       1.776927    1.222442    1.912560
H       0.463619    0.826958    3.042303
H       1.949270   -0.138827    3.024922
H      -0.776805   -1.483489    2.694284
H      -0.541656   -2.333381    1.177143
H       2.448557   -4.054995    3.598818
