17

C       0.031261    1.453926    0.004080
N       0.055168    0.004207   -0.009958
C      -1.070299   -0.596854   -0.098999
N      -2.322922   -0.059381   -0.212695
C      -1.085168   -2.109859   -0.113748
O      -2.147563   -2.708278   -0.126247
C       0.186027   -2.780344   -0.104270
C       1.212116   -3.415104   -0.105591
C       2.460060   -4.155664   -0.102938
H       1.053155    1.838874    0.034042
H      -0.465602    1.868282   -0.887459
H      -0.498367    1.851579    0.885956
H      -2.483541    0.889648    0.077286
H      -3.081623   -0.716825   -0.104995
H       2.302572   -5.211169   -0.347449
H       3.164633   -3.735186   -0.828521
H       2.933226   -4.104155    0.884064
