17

C       0.021525    1.549912    0.033894
C      -0.022119    0.051405   -0.003502
C      -0.048396   -0.641950   -1.145287
N      -0.070018   -2.044346   -1.179491
C      -0.312655   -2.849852   -0.089213
O      -0.272369   -4.061243   -0.162033
C      -0.693592   -2.078157    1.167612
C       0.012759   -0.718946    1.297569
H       0.908864    1.907648    0.573463
H       0.045885    1.979597   -0.971773
H      -0.848583    1.967279    0.557661
H      -0.043912   -0.167211   -2.120165
H       0.105197   -2.528806   -2.046542
H      -1.779330   -1.919280    1.110298
H      -0.508547   -2.727333    2.025184
H       1.059000   -0.866514    1.606895
H      -0.455630   -0.138983    2.100585
