12

O      -0.006173   -0.018721    0.003746
C      -0.030002    1.175458    0.009836
N      -1.152869    2.016577    0.029111
C      -0.704140    3.321427    0.030343
C       0.660411    3.292657    0.011049
O       1.101092    1.986364   -0.002042
C       1.081112    4.629341    0.011752
N       0.011424    5.433367    0.030924
N      -1.083771    4.611868    0.041858
H      -2.085998    1.645318    0.043021
H       2.071700    5.054160   -0.000030
H      -1.999953    5.022969    0.056929
