25

C       0.164551    1.342279    0.007474
O       0.056853   -0.059072    0.001070
C      -1.284368   -0.506938    0.011541
C      -1.261150   -2.031722    0.003150
C      -2.637155   -2.737234    0.012593
C      -3.435747   -2.393758    1.284826
C      -3.460127   -2.380015   -1.240170
C      -2.348661   -4.250406    0.001564
O      -3.576348   -4.965949    0.009450
H       1.228946    1.590619   -0.001436
H      -0.312423    1.795605   -0.876804
H      -0.295294    1.786147    0.905517
H      -1.802361   -0.121692    0.905046
H      -1.819371   -0.112201   -0.867685
H      -0.696247   -2.348155   -0.882885
H      -0.679352   -2.357579    0.874718
H      -3.744189   -1.344192    1.297857
H      -4.334783   -3.011425    1.344367
H      -2.838925   -2.579506    2.185414
H      -2.880788   -2.555780   -2.154080
H      -4.360153   -2.997172   -1.289107
H      -3.768751   -1.330430   -1.235766
H      -1.757074   -4.499217   -0.894300
H      -1.739990   -4.508925    0.883121
H      -3.376841   -5.905897    0.002211
