18

C      -0.278968    1.393367    0.166845
C      -0.519284   -0.050900   -0.233428
O      -0.385795   -0.415213   -1.397782
N      -0.892256   -0.882552    0.774079
C      -1.085454   -2.297504    0.673784
C      -2.496775   -2.829685    0.937892
O      -3.507647   -1.904215    1.153602
C      -1.923708   -2.891079   -0.449426
O      -2.542495   -2.047576   -1.361190
H      -0.965672    2.032916   -0.394025
H      -0.402829    1.583107    1.235404
H       0.736460    1.668814   -0.129475
H      -1.088690   -0.469061    1.672345
H      -0.245782   -2.899421    1.015624
H      -2.604093   -3.732701    1.530529
H      -3.707850   -1.539640    0.276617
H      -1.585156   -3.847083   -0.845541
H      -1.837828   -1.459464   -1.699573
