16

C       0.889296    1.416191    0.054062
C       0.321697    0.036516   -0.042479
C      -0.126033   -0.704508   -1.161674
N      -0.553232   -1.924672   -0.689571
N      -0.382122   -1.923061    0.595052
N       0.153840   -0.733180    1.022136
C      -0.219710   -0.441524   -2.535000
N       0.278940    0.677204   -3.103109
N      -0.831630   -1.344510   -3.322882
H      -0.669889   -1.364114   -4.315768
H      -1.079645   -2.205631   -2.849845
H       1.841690    1.510364   -0.485007
H       0.201241    2.174674   -0.343437
H       1.078123    1.656111    1.102251
H       0.636512    1.401601   -2.504134
H      -0.016621    0.954251   -4.024386
