16

O      -0.276252    0.461278    0.886966
C       0.085374    1.008263   -0.131002
C       1.260309    1.874898   -0.212469
C       1.869735    2.826784    0.835757
C       2.660033    1.645036    0.342536
N       3.363172    2.152090   -0.878006
C       3.792362    3.551116   -0.490323
C       2.306506    3.861248   -0.234868
C       1.984096    2.729152   -1.270360
H      -0.469108    0.874710   -1.086852
H       1.533507    2.963627    1.853419
H       3.009824    0.815967    0.942163
H       4.502894    3.609168    0.339072
H       4.195071    4.057814   -1.371910
H       1.859449    4.854186   -0.226594
H       1.751899    2.857404   -2.325632
