14

C      -0.015781    1.445479    0.110956
C      -0.023369   -0.027318   -0.060249
N      -0.054419   -0.728672   -1.135077
C      -0.033496   -2.062549   -0.705085
C      -0.039038   -3.189897   -1.551863
N      -0.036537   -4.155775   -2.194232
C       0.002817   -2.074622    0.667163
N      -0.039029   -3.060044    1.607907
O       0.011716   -0.795551    1.097068
H       0.886312    1.778861    0.634795
H      -0.047378    1.910183   -0.874624
H      -0.880390    1.781012    0.693120
H       0.167714   -3.985406    1.261118
H       0.403256   -2.844473    2.489419
