23

C       0.010902    1.471335   -0.221654
C       0.022636   -0.031250    0.016573
C      -1.178236   -0.705436   -0.631070
C       1.352005   -0.759094   -0.002418
C       0.622118   -0.579550    1.311071
C       1.201723    0.369265    2.348085
C      -0.006004   -1.819315    1.962157
C       0.963708   -2.644953    2.678951
C       1.770363   -3.319946    3.261503
H       0.907256    1.968780    0.152175
H      -0.053474    1.679867   -1.296049
H      -0.857192    1.942494    0.255166
H      -1.238070   -0.419848   -1.687731
H      -1.129483   -1.795989   -0.600270
H      -2.117419   -0.395885   -0.156440
H       1.384243   -1.753232   -0.438444
H       2.257028   -0.180737   -0.162271
H       1.782863    1.176695    1.899906
H       0.411508    0.823115    2.958865
H       1.867714   -0.178967    3.022205
H      -0.792079   -1.502076    2.661860
H      -0.503295   -2.442373    1.214119
H       2.477313   -3.921744    3.776422
