21

C       0.110347    1.164183    0.010408
O      -0.140011   -0.019768   -0.721135
C      -1.349115   -0.621246   -0.375527
C      -1.544879   -2.053571   -0.809894
C      -1.366996   -1.719075    0.643601
C      -0.275457   -2.174828    1.598760
C      -1.447968   -2.362004    2.594234
C      -1.451974   -1.529086    3.859146
O      -2.404859   -1.873943    1.609678
H       1.077313    1.549497   -0.321516
H      -0.661183    1.925531   -0.180685
H       0.149087    0.980347    1.093498
H      -2.221881    0.034300   -0.413616
H      -2.532621   -2.337199   -1.157201
H      -0.714147   -2.536449   -1.314989
H       0.254494   -3.085400    1.314057
H       0.450002   -1.408436    1.880592
H      -1.657794   -3.413788    2.826874
H      -1.223809   -0.482168    3.635724
H      -2.433470   -1.570749    4.341655
H      -0.705730   -1.906065    4.567458
