13

O      -0.081774   -0.045534    0.003328
C       0.010977    1.159984    0.009568
N      -1.173184    1.943638    0.029539
C      -1.203882    3.305382    0.036980
C      -0.007800    3.974449    0.024030
C       1.166372    3.175610    0.003562
N       1.204373    1.871447   -0.003740
C      -2.473277    3.942256    0.057643
C      -3.556926    4.464371    0.075170
H      -2.036382    1.417975    0.038533
H       0.029698    5.053332    0.029082
H       2.132607    3.681313   -0.007270
H      -4.510460    4.933894    0.090647
