18

C       0.029981   -1.281567    0.017667
C      -0.003974   -0.084442   -0.079835
C      -0.044770    1.371895   -0.171835
N       1.301303    1.951107   -0.059441
C       1.874747    1.993635    1.322155
C       2.734116    3.247349    0.975306
C       2.286624    4.001228    2.241992
C       1.023744    3.221751    1.824936
C       1.342275    3.405749    0.292257
H       0.058628   -2.340296    0.092132
H      -0.451779    1.666441   -1.147827
H      -0.747526    1.755586    0.589396
H       2.170920    1.099359    1.871125
H       3.693670    3.234424    0.460165
H       2.758009    3.701664    3.182644
H       2.235113    5.091812    2.171749
H       0.048707    3.209018    2.311398
H       1.006754    4.194980   -0.383336
