19

O       0.316975    1.389017    0.145342
C       0.106013   -0.008449    0.043131
C       0.650785   -0.523949   -1.271676
C      -0.373432   -0.768182   -2.106630
C      -1.763337   -0.659362   -1.457263
C      -1.331598   -0.608507   -0.003457
C      -1.555567    0.000505    1.414144
C      -0.110776   -0.653857    1.441621
C      -0.743640   -1.863193    0.721996
H       0.250728    1.760310   -0.741274
H       1.697433   -0.527590   -1.556557
H      -0.258656   -1.039504   -3.151924
H      -2.290458    0.240188   -1.801964
H      -2.400031   -1.516002   -1.704762
H      -1.598541    1.085626    1.482976
H      -2.301372   -0.485894    2.047987
H       0.576510   -0.665180    2.289510
H      -1.463484   -2.440356    1.307261
H      -0.077649   -2.511886    0.151256
