19

C       0.208686    1.590410    0.069657
C       0.051873    0.083162    0.007467
C       0.686949   -0.614428   -1.245891
C       1.209775   -1.913152   -0.676801
C       2.455178   -2.008203    0.157364
C       1.111468   -1.782188    0.814098
C       0.214293   -3.021811    0.729144
O       0.462911   -3.143681   -0.705185
O       0.712443   -0.503402    1.165773
H       1.266579    1.867824    0.023698
H      -0.312635    2.062165   -0.769167
H      -0.211117    1.984405    0.999091
H      -1.015441   -0.179714    0.054957
H      -0.055753   -0.790634   -2.026941
H       1.487056    0.001578   -1.668660
H       2.955009   -2.967320    0.255107
H       3.101589   -1.138002    0.148791
H       0.516893   -3.919830    1.279492
H      -0.839004   -2.796941    0.931217
