18

C      -0.161509    1.449160   -0.134120
C       1.252741    0.988453    0.063773
C       0.124191   -0.029387    0.071033
C      -0.277347   -0.733637    1.300608
C      -0.702955   -1.992328    1.411879
C      -1.010267   -2.320281    2.842189
O      -0.722126   -1.126425    3.567313
C      -0.268192   -0.112888    2.679948
H      -0.639606    1.992085    0.673146
H      -0.472635    1.762683   -1.124234
H       1.921917    0.982686   -0.789236
H       1.737878    1.217759    1.005631
H       0.049979   -0.641298   -0.822671
H      -0.820956   -2.702229    0.602511
H      -2.064073   -2.604162    2.997177
H      -0.395517   -3.148577    3.230873
H       0.737592    0.221421    2.981882
H      -0.931511    0.764547    2.748286
