18

C      -0.247892    1.363317   -0.139554
O       1.028312    0.723775   -0.149373
C      -0.142449   -0.099074   -0.056353
C      -0.320070   -0.800449    1.250510
N      -1.453511   -1.736030    1.351916
C      -0.091071   -2.263262    1.450250
C       0.370726   -3.216007    0.387570
C      -0.547707   -4.184718   -0.229589
O      -0.101517   -3.029453   -0.942719
H      -0.475369    1.940537    0.756744
H      -0.548447    1.828866   -1.077156
H      -0.361924   -0.694430   -0.937367
H      -0.104232   -0.169230    2.112082
H      -1.890341   -1.678566    2.266767
H       0.275514   -2.543472    2.438269
H       1.428492   -3.476215    0.452224
H      -0.166970   -5.135535   -0.598757
H      -1.595689   -4.164139    0.060962
