12

C       0.067172    1.466777    0.102776
C      -0.068049   -0.003561   -0.020311
C      -1.069551   -0.867848   -0.292941
N      -0.594060   -2.183927   -0.271904
C       0.656188   -2.031169    0.010463
O       1.596581   -2.962769    0.157044
O       1.077197   -0.770322    0.181429
H       0.783837    1.870973   -0.621357
H      -0.902319    1.936567   -0.078959
H       0.407421    1.760873    1.102295
H      -2.103588   -0.646532   -0.505015
H       1.164861   -3.813753    0.008412
