25

C       0.207935    1.526683   -0.119976
C      -0.053668    0.016286   -0.100375
C      -1.530470   -0.445575    0.033407
C      -2.135418    0.079545    1.348171
C      -2.360244    0.061899   -1.160348
C      -1.494525   -1.997910    0.039834
C      -2.850297   -2.725705    0.114869
C      -2.652719   -4.216067    0.268775
O      -3.079466   -5.054734   -0.482118
H       1.280495    1.719394   -0.223082
H      -0.291867    2.021325   -0.958172
H      -0.121640    2.014917    0.802009
H       0.357545   -0.422507   -1.019139
H       0.518007   -0.427443    0.725788
H      -2.149506    1.172941    1.369809
H      -3.170190   -0.252072    1.478674
H      -1.560264   -0.264491    2.215546
H      -1.957380   -0.309240   -2.109604
H      -3.403226   -0.261404   -1.090765
H      -2.366826    1.154745   -1.204574
H      -0.972955   -2.336199   -0.864769
H      -0.875084   -2.323054    0.887240
H      -3.410617   -2.383391    0.995798
H      -3.464453   -2.552784   -0.771941
H      -2.049323   -4.504883    1.162962
