17

O       0.173757    1.236728    0.244838
C       0.054426   -0.129866    0.037508
C      -1.332277   -0.672557    0.024189
C      -2.509095    0.279782    0.117644
C      -2.516868    1.451201   -0.870307
O      -3.165561    2.451921   -0.639969
C      -1.798195    1.262067   -2.144784
C      -0.934080    0.253290   -2.338767
C      -0.533559   -0.681132   -1.278686
H       0.857057    1.588184   -0.336350
H       0.842523   -0.737213    0.481458
H      -1.480207   -1.636305    0.501412
H      -3.434286   -0.278164   -0.078526
H      -2.605652    0.697106    1.123757
H      -2.027291    1.978925   -2.926513
H      -0.461608    0.126054   -3.310337
H      -0.110049   -1.624148   -1.607471
