17

C      -0.063071    1.379831    0.008502
O      -0.021717   -0.043389    0.003036
C      -1.218381   -0.661774    0.010536
N      -2.376097   -0.016740    0.021661
N      -3.293657   -1.017095    0.025735
C      -2.733853   -2.250178    0.017479
C      -1.368506   -2.071251    0.007276
C      -0.297184   -3.110349   -0.004532
O      -0.919431   -4.388156    0.001824
H       0.976315    1.711722    0.001449
H      -0.587737    1.760470   -0.874228
H      -0.573642    1.754056    0.902175
H      -4.268910   -0.779115    0.034467
H      -3.319825   -3.154263    0.019492
H       0.341699   -2.982919   -0.894187
H       0.360696   -2.983034    0.871146
H      -0.227298   -5.055066   -0.005795
