15

C      -0.002393    1.557063    0.206294
C      -0.039087    0.049307   -0.097906
C      -1.419017   -0.508392   -0.171173
C      -2.152103   -1.080791   -1.165168
C      -3.431362   -1.403167   -0.601605
C      -3.379797   -1.001237    0.692916
O      -2.164702   -0.454998    0.973003
H       1.029875    1.914160    0.270445
H      -0.514535    2.125648   -0.575820
H      -0.497764    1.771545    1.157124
H       0.454951   -0.154559   -1.053269
H       0.532347   -0.487349    0.670834
H      -1.821419   -1.254606   -2.177457
H      -4.268272   -1.870063   -1.096800
H      -4.079863   -1.028046    1.511493
