17

C       0.165282    0.990426    0.514816
C      -0.297535   -0.338063   -0.036517
O      -1.116970   -1.022087    0.539952
C       0.304860   -0.758023   -1.376594
C       0.699655   -2.230564   -1.550591
O       1.685377   -2.537834   -2.188204
N      -0.159678   -3.138170   -0.982428
C       0.011837   -4.510742   -1.083436
N      -0.794990   -5.300339   -0.501787
H       0.043000    1.779454   -0.235713
H      -0.394263    1.238958    1.416885
H       1.236162    0.938541    0.744676
H      -0.459848   -0.538585   -2.135658
H       1.182620   -0.162487   -1.630619
H      -0.907418   -2.783845   -0.392031
H       0.876131   -4.775324   -1.695842
H      -0.528871   -6.267064   -0.681129
