20

C      -0.084985    1.486638   -0.327416
C      -0.087555    0.028224    0.063071
N       1.169669   -0.730561   -0.059929
C       0.569323   -0.553917    1.267164
C       1.353018    0.179295    2.354813
C       2.111443   -0.860255    3.227005
O       2.794725   -0.273958    4.308895
C       2.318767    1.173679    1.893590
C       3.189689    1.960947    1.628380
H       0.848228    1.973885   -0.045868
H      -0.210014    1.585860   -1.411201
H      -0.916076    2.013899    0.154180
H      -0.994613   -0.498803   -0.236003
H       1.003221   -1.667737   -0.414376
H       0.048036   -1.413887    1.690253
H       0.631420    0.680786    3.015305
H       1.384070   -1.554401    3.660686
H       2.785036   -1.435652    2.573457
H       3.391900    0.387820    3.938208
H       3.928225    2.669801    1.344903
