14

O       0.355862    1.322015    0.076622
C       0.180737   -0.006173   -0.026569
N       0.174694   -0.719746   -1.115617
C      -0.037395   -2.019174   -0.676180
C      -0.151538   -2.064516    0.679110
N      -0.004046   -0.742115    1.106009
C      -0.043935   -0.237735    2.460805
C      -1.388712   -0.282838    3.055630
N      -2.437425   -0.327362    3.536490
H       0.477092    1.653391   -0.822076
H      -0.092393   -2.839183   -1.374709
H      -0.326380   -2.863968    1.378992
H       0.638953   -0.810849    3.097630
H       0.306012    0.797461    2.448580
