19

C       0.057359    1.574607    0.091954
O       1.390551    1.998505   -0.209012
C       2.013773    0.997206   -0.965800
C       2.584630   -0.209112   -0.257765
C       2.702182   -0.358712    1.248474
O       1.535361   -0.017764    1.978382
C       0.350880   -0.568122    1.435688
C       0.061297    0.027925    0.054174
C       1.214063   -0.271545   -0.915755
H      -0.206622    1.977780    1.073781
H      -0.639186    1.981035   -0.656293
H       2.487983    1.358160   -1.873746
H       3.387119   -0.709501   -0.795060
H       2.976434   -1.406400    1.464255
H       3.496327    0.281882    1.645215
H       0.419929   -1.667591    1.368802
H      -0.445337   -0.320994    2.145572
H      -0.885948   -0.366196   -0.325281
H       1.038725   -0.895527   -1.783544
