20

C       0.060916    1.466007   -0.185753
N       0.040154    0.015003   -0.032995
C      -1.221219   -0.461771    0.572613
C      -0.996835   -1.968863    1.006465
C       0.540001   -2.016885    0.958212
C       0.680096   -0.505971    1.242505
C       1.997192    0.057463    1.702052
C      -0.728997   -0.322505    2.021974
O      -1.223925   -1.607756    2.404141
H       1.073974    1.792915   -0.438180
H      -0.593660    1.742986   -1.018733
H      -0.269154    2.034564    0.702080
H      -2.180644   -0.137109    0.172244
H      -1.599397   -2.807338    0.662551
H       0.925752   -2.670154    1.743577
H       0.964799   -2.270772   -0.013913
H       2.779807   -0.113458    0.954255
H       1.939965    1.133879    1.891927
H       2.308257   -0.430075    2.631480
H      -0.892584    0.477709    2.742170
