19

C      -0.009677    1.612489    0.082130
C      -0.058437    0.085515    0.082666
O       0.553131   -0.389118    1.278920
C      -1.461697   -0.451577   -0.030490
C      -2.602774   -0.198784   -1.043542
C      -3.232872   -1.213430   -0.061011
C      -1.880436   -1.952164    0.141870
O      -1.914841   -1.889242    1.607444
C      -2.474406   -0.608314    1.155914
H       1.020319    1.944663    0.236633
H      -0.367468    2.019546   -0.869166
H      -0.622763    2.017149    0.893729
H       0.517354   -0.279859   -0.785684
H      -0.009860   -1.081258    1.653344
H      -3.035228    0.805214   -1.052664
H      -2.434980   -0.550673   -2.065231
H      -4.226824   -1.658744   -0.053499
H      -1.488383   -2.851601   -0.332425
H      -2.802152    0.109180    1.906987
