23

C       0.047556    1.416189   -0.075886
C      -0.273509   -0.083028   -0.144229
C       0.358729   -0.791752   -1.351908
C      -0.213846   -0.226163   -2.661992
C       1.888070   -1.135223   -1.176986
O       1.510018   -2.074660   -0.093421
C       0.560713   -2.336275   -1.200221
C       1.807461   -2.345393   -2.148915
C       1.851723   -2.277171   -3.674319
H       1.127214    1.586763    0.000159
H      -0.312471    1.959137   -0.955843
H      -0.418898    1.870767    0.803542
H       0.064814   -0.568640    0.771761
H      -1.362566   -0.216573   -0.198347
H       0.402135    0.583156   -3.067677
H      -0.331751   -0.978111   -3.441566
H      -1.207462    0.193702   -2.476349
H       2.726833   -0.463347   -0.979261
H      -0.186213   -3.117749   -1.038632
H       2.483018   -3.128591   -1.796143
H       1.610029   -1.299876   -4.089581
H       2.862377   -2.529059   -4.011812
H       1.173346   -3.011833   -4.122629
