19

C      -0.078661    1.562882    0.051876
C       0.027940    0.047606   -0.003839
C      -1.120939   -0.632482    0.537315
C      -2.084206   -1.189703    0.996133
C       0.706069   -0.682670   -1.160886
C       1.631992    0.099083   -2.095914
C       2.773939    0.525288   -1.196723
C       2.623470    0.070120    0.050585
C       1.363733   -0.706925    0.204796
H       0.849506    2.046215   -0.257078
H      -0.886010    1.910920   -0.600662
H      -0.309985    1.888520    1.070438
H      -2.934690   -1.680409    1.399549
H       0.192227   -1.554138   -1.546921
H       1.981836   -0.535453   -2.920790
H       1.134075    0.958619   -2.564279
H       3.589005    1.149847   -1.544892
H       3.307700    0.247106    0.872345
H       1.330234   -1.574979    0.852688
