17

C      -0.062094    1.583430    0.002521
C       1.459652    1.812876    0.032048
C       1.920173    0.988389    1.244062
C       1.118624   -0.246905    1.038442
C       0.033296    0.037747   -0.037173
C       0.848522   -0.164716   -1.338356
C       2.052329    0.627584   -0.836337
N       2.479277   -0.120310    0.413854
H      -0.547749    1.963958    0.906720
H      -0.565487    1.998988   -0.877095
H       1.844911    2.819555   -0.111609
H       2.376111    1.319450    2.171185
H       1.019239   -1.017540    1.792269
H      -0.892903   -0.525099    0.067914
H       1.112468   -1.207499   -1.535185
H       0.359771    0.262866   -2.219049
H       2.879748    0.828529   -1.514090
