16

C       0.048285    1.564583   -0.065035
C      -0.008411    0.111143   -0.037660
C      -0.045913   -1.093405   -0.024664
C      -0.124946   -2.533411   -0.005798
N       0.379270   -3.258286    1.238853
C      -0.470201   -2.796844    2.325579
C      -1.007983   -3.875814    1.440755
C      -1.499406   -3.268796    0.167891
O      -2.438471   -3.443526   -0.547309
H       0.742875    1.944324    0.692215
H       0.390444    1.927397   -1.040218
H      -0.934312    2.007193    0.131174
H       0.376423   -2.974484   -0.874808
H      -0.134520   -3.115098    3.307837
H      -0.889342   -1.795344    2.283005
H      -1.166825   -4.891856    1.782586
