21

C      -0.371953    1.509008    0.133159
C      -0.027162    0.026046   -0.000422
C      -1.241659   -0.790723   -0.440663
C       1.259589   -0.244243   -0.867453
C       1.945844   -0.816980    0.384664
O       3.029084   -1.283300    0.610746
C       0.731470   -0.566019    1.222462
C       0.764259   -0.118327    2.668156
C       0.248911   -1.479454    2.328919
H       0.497266    2.094621    0.449375
H      -0.723608    1.914756   -0.822006
H      -1.167114    1.667345    0.870754
H      -1.615046   -0.442001   -1.409998
H      -0.995678   -1.853223   -0.535858
H      -2.062897   -0.701678    0.279779
H       1.136537   -0.970421   -1.676603
H       1.748644    0.646911   -1.272275
H       1.744354   -0.034715    3.126158
H       0.050644    0.643047    2.965242
H      -0.819763   -1.655852    2.392284
H       0.871672   -2.339617    2.551704
