20

C       0.846889   -0.373859    1.339891
C       0.008143   -0.038894    0.103593
C       0.730907   -0.343196   -1.225729
C       0.943364   -1.816418   -1.482922
C       0.306503   -2.227959   -2.575012
C      -0.414862   -1.098842   -3.255075
N      -0.061833    0.041034   -2.406124
C      -0.275860    1.314630   -2.813655
O      -0.861242    1.624814   -3.832832
H       1.065181   -1.444456    1.405675
H       1.803365    0.160992    1.328696
H       0.319972   -0.089545    2.255118
H      -0.937873   -0.592293    0.119412
H      -0.251334    1.026247    0.116308
H       1.691152    0.196516   -1.222755
H       1.537916   -2.432496   -0.821177
H       0.287109   -3.239584   -2.960310
H      -0.084455   -0.925770   -4.287332
H      -1.502462   -1.251068   -3.299300
H       0.147087    2.059816   -2.109908
