18

O      -0.278310    1.274135   -1.024856
N      -0.111933   -0.067389   -0.691546
C      -1.037366   -0.517721    0.102750
C      -2.127806    0.323375    0.601283
C      -3.271052   -0.065800    1.178183
C      -3.736068   -1.466821    1.472589
C      -2.693577   -2.371641    2.148008
C      -1.490045   -2.705421    1.309676
C      -0.825437   -1.925423    0.449341
H       0.495017    1.442167   -1.573455
H      -1.978167    1.383162    0.433595
H      -3.969744    0.723530    1.448217
H      -4.621246   -1.414975    2.115439
H      -4.068142   -1.944665    0.540313
H      -2.369037   -1.904920    3.089390
H      -3.185377   -3.307487    2.437715
H      -1.105897   -3.714901    1.438973
H       0.035341   -2.345424   -0.063396
