22

C      -0.030630    1.444886    0.035709
N      -0.002883    0.000182    0.025878
C       0.001582   -0.786376   -1.102120
C       0.030386   -2.105987   -0.722451
C       0.044768   -3.298576   -1.629467
C       0.044158   -2.125581    0.709731
C       0.075778   -3.363463    1.554995
C       0.023100   -0.812462    1.142811
C       0.024814   -0.233448    2.519713
H       0.853714    1.861923    0.531118
H      -0.047075    1.805269   -0.994412
H      -0.921087    1.827736    0.547500
H      -0.016165   -0.337740   -2.083804
H       0.938140   -3.918295   -1.480077
H      -0.820977   -3.952288   -1.463255
H       0.028853   -2.995156   -2.680661
H       0.965481   -3.973236    1.352154
H       0.081296   -3.129793    2.623416
H      -0.793565   -4.006926    1.368617
H       0.896385    0.408479    2.704332
H      -0.867610    0.373863    2.721104
H       0.047558   -1.031561    3.264306
