23

C      -0.671185    1.129971   -0.026916
C       0.194986   -0.116001   -0.125033
C       1.617477   -0.002703   -0.738172
C       2.106614   -1.051109    0.293962
C       0.843600   -0.771894    1.140530
C       0.921839    0.052628    2.457218
C      -0.247424   -0.798306    3.023153
C       0.058359   -1.846679    1.920484
O      -1.004623   -2.425264    1.197474
H      -0.152327    1.951006    0.479681
H      -0.941220    1.485661   -1.027914
H      -1.603567    0.932323    0.513157
H      -0.362639   -0.902388   -0.643717
H       1.731214   -0.237252   -1.799678
H       2.056877    0.983134   -0.552628
H       2.097540   -2.066616   -0.115544
H       3.073186   -0.878595    0.776359
H       1.861353   -0.131582    2.987516
H       0.768838    1.131814    2.395687
H      -0.196411   -1.117138    4.067558
H      -1.217007   -0.327924    2.837653
H       0.745079   -2.620955    2.298061
H      -1.427139   -3.087260    1.753321
