19

N      -0.120448    1.481448   -0.048352
C       0.018330    0.214517    0.057876
N      -1.027978   -0.665441    0.086351
C      -2.400261   -0.270446   -0.097830
C      -3.097504   -0.452211   -1.480092
C      -4.384405   -0.856582   -0.711014
C      -3.501984   -1.158124    0.532101
C       1.371832   -0.450563    0.198203
O       2.402305    0.167859    0.216003
H       0.805998    1.908358    0.004776
H      -0.814225   -1.647554    0.007006
H      -2.477700    0.766781    0.232336
H      -3.133134    0.412322   -2.145655
H      -2.671532   -1.301748   -2.024125
H      -5.041534    0.000128   -0.540534
H      -4.979574   -1.676515   -1.116477
H      -3.195020   -2.210344    0.552579
H      -3.872662   -0.884964    1.522506
H       1.362147   -1.562024    0.285660
