27

C      -0.841141    0.366605    3.515295
C      -0.747309   -0.918696    2.676750
C      -0.753830   -2.137495    3.612248
C      -1.850603   -0.992362    1.585422
C      -1.815858    0.235660    0.656457
C      -1.738199   -2.260025    0.747403
C      -2.409366   -3.560797    1.123173
C      -2.873070   -2.806748   -0.098179
C      -4.256314   -2.192222   -0.144234
H      -0.081270    0.365677    4.303763
H      -0.692182    1.270332    2.919643
H      -1.820458    0.444283    4.003958
H       0.220823   -0.905573    2.152710
H      -0.586515   -3.072289    3.074061
H       0.029507   -2.040599    4.371529
H      -1.712271   -2.222240    4.139222
H      -2.819352   -1.001244    2.105241
H      -2.554901    0.138560   -0.142924
H      -2.025697    1.166253    1.189538
H      -0.831040    0.336363    0.183714
H      -0.755434   -2.367691    0.289289
H      -1.865652   -4.491899    1.000892
H      -3.067698   -3.547673    1.987034
H      -2.560177   -3.230525   -1.049643
H      -4.549131   -1.767698    0.820396
H      -4.321826   -1.393963   -0.891993
H      -5.004023   -2.949423   -0.406454
