20

O       0.040579    1.456177   -0.101129
C       0.006829    0.033530    0.011474
C       0.748450   -0.446138    1.265957
C       0.048415    0.048752    2.540726
C      -1.445316   -0.138800    2.470416
C      -2.099477   -0.403645    1.336928
C      -1.425303   -0.489975    0.015281
C      -2.205253   -0.350447   -1.243980
N      -1.781217   -1.683803   -0.797490
H      -0.603700    1.811962    0.520575
H       0.520186   -0.329992   -0.886960
H       0.766629   -1.542996    1.260185
H       1.784089   -0.095499    1.234460
H       0.445613   -0.477949    3.416324
H       0.285000    1.109077    2.712076
H      -2.000420   -0.057458    3.401792
H      -3.173856   -0.566470    1.343932
H      -3.277028   -0.174350   -1.199791
H      -1.703403    0.113038   -2.089514
H      -0.968529   -1.984086   -1.332587
