19

C      -0.019041    1.414164    0.054380
N       0.134190   -0.028614    0.007580
C      -0.148523   -0.761889    1.228460
C       0.053461   -0.637737   -1.211474
C      -0.013138   -0.081871   -2.445152
C      -0.006317   -1.140273   -3.467483
O       0.034066   -1.046154   -4.677526
N      -0.068172   -2.345117   -2.764235
C       0.069536   -2.153037   -1.341162
H       0.647839    1.881533   -0.675596
H      -1.048145    1.736144   -0.165593
H       0.253901    1.774952    1.048609
H      -1.226524   -0.865336    1.429668
H       0.289884   -1.761030    1.186721
H       0.304424   -0.238551    2.074880
H      -0.056577    0.963038   -2.706140
H       0.204788   -3.199512   -3.220393
H       1.007419   -2.569028   -0.942706
H      -0.755825   -2.614234   -0.780510
