17

C       0.050188    1.526547    0.122269
C       0.022676   -0.004701    0.039057
O      -1.296870   -0.521813    0.058566
C       0.774042   -0.495227   -1.168809
N       1.957045   -1.020670   -1.241005
C       2.098044   -1.241371   -2.598609
C       3.315770   -1.848302   -3.203386
N       1.066707   -0.877683   -3.314760
O       0.171143   -0.368978   -2.357879
H       1.077269    1.897229    0.190712
H      -0.415087    1.969617   -0.764617
H      -0.503428    1.848163    1.007693
H       0.523904   -0.431139    0.911654
H      -1.750517   -0.213027   -0.734300
H       3.487428   -2.844852   -2.785843
H       3.204760   -1.925473   -4.285757
H       4.195623   -1.240429   -2.972510
