14

O       0.207790    0.275078   -0.881097
C       0.126807    1.277696   -0.256945
O      -0.989787    1.773463    0.406992
C      -0.295940    2.985440    0.806067
C       0.404806    2.862767    2.192322
N       1.576842    2.193126    1.523861
C       1.008693    2.464071    0.174830
C       0.707776    4.141550    2.805568
C       0.979024    5.209796    3.286455
H      -0.851872    3.884696    0.554785
H      -0.112833    2.199710    2.893114
H       2.446053    2.685573    1.692940
H       1.633740    2.961278   -0.564785
H       1.211967    6.147444    3.728407
