18

O      -0.095860    1.328242    0.115189
C       0.026747   -0.057765    0.008253
C      -0.374553   -0.763614   -1.263822
C      -1.197866   -0.933688    0.004708
C      -0.794769   -1.968089    1.076942
C       0.689771   -2.290212    0.752883
C       0.880730   -0.783591    1.071942
C      -0.212969   -1.006976    2.175295
H       0.672752    1.726793   -0.307094
H      -0.832791   -0.109781   -1.999559
H       0.200755   -1.573960   -1.695985
H      -2.190525   -0.500302    0.038594
H      -1.510774   -2.755854    1.312618
H       1.139474   -2.920328    1.523373
H       0.961180   -2.677599   -0.229858
H       1.860601   -0.357920    1.294117
H      -0.814180   -0.140932    2.462599
H       0.160634   -1.531713    3.059044
