18

N       0.059791   -1.174884    0.087941
C       0.032141   -0.019809    0.052580
C      -0.002304    1.445342    0.016173
C      -0.895823    1.996723    1.161020
C      -0.762950    3.490038    1.305239
C       0.355285    4.144775    0.986820
C       1.564049    3.463274    0.465013
C       2.172683    2.315939    1.264433
C       1.409020    2.028440    0.006506
H      -0.473171    1.730717   -0.933758
H      -1.934698    1.716269    0.961116
H      -0.630035    1.492877    2.098963
H      -1.617350    4.026917    1.705689
H       0.410640    5.221950    1.115211
H       2.259312    4.085297   -0.088565
H       3.249279    2.190471    1.238599
H       1.719324    2.089929    2.222778
H       1.995580    1.727406   -0.855497
