22

C       0.814792    1.278169   -0.552113
N       0.677420   -0.127962   -0.205240
C       1.882025   -0.872567    0.128428
C       0.848085   -0.582726    1.179519
C       1.205579    0.393595    2.291623
C      -0.153461   -1.613926    1.633222
C      -0.157395   -3.046316    1.129416
C       0.276555   -2.744372    2.536176
O       1.607738   -2.886666    2.951346
H       1.657668    1.793955   -0.067366
H       0.955099    1.355626   -1.635204
H      -0.107451    1.808677   -0.293953
H       1.983765   -1.849121   -0.339614
H       2.818700   -0.318931    0.209094
H       1.942266    1.138487    1.983883
H       0.312535    0.922669    2.644203
H       1.617469   -0.162796    3.138582
H      -1.129742   -1.181105    1.842897
H      -1.112070   -3.533000    0.961123
H       0.612985   -3.340121    0.423790
H      -0.378897   -3.029757    3.352073
H       2.182025   -2.637624    2.220303
