19

C      -0.005673   -1.223381   -0.073500
C      -0.014403   -0.021842   -0.071984
C      -0.021354    1.435448   -0.048840
C       1.382202    2.052863    0.026188
O       2.081622    1.734949   -1.175181
C       3.105096    2.706432   -1.371683
C       2.556665    3.997583   -0.788326
C       1.134062    4.327793   -1.156592
C       1.426423    3.571309    0.116899
H       0.003701   -2.284774   -0.086533
H      -0.525933    1.824845   -0.940439
H      -0.595282    1.785886    0.818476
H       1.907535    1.627352    0.897540
H       4.032081    2.418525   -0.849804
H       3.312078    2.745115   -2.446322
H       3.246022    4.786279   -0.511817
H       0.818787    5.360062   -1.056112
H       0.683341    3.793715   -1.987198
H       1.252876    4.040368    1.078151
