18

N      -0.061104    1.384103    0.150502
C       0.048665   -0.004131    0.047157
N      -1.034958   -0.771293    0.018012
N      -0.537423   -2.040286    0.000104
C       0.818231   -2.088083    0.000889
C       1.240518   -0.771971    0.033655
C       1.603472   -3.334988   -0.022110
C       1.135985   -4.582768    0.702281
C       1.141337   -4.552770   -0.799635
H       0.617718    1.878455   -0.412804
H      -0.997650    1.695010   -0.075454
H      -1.186150   -2.806401   -0.021836
H       2.259624   -0.420970    0.060525
H       2.672592   -3.155260   -0.014588
H       1.882440   -5.181261    1.212288
H       0.182852   -4.533050    1.218111
H       0.191722   -4.482995   -1.319706
H       1.891453   -5.130680   -1.327763
