17

C       0.061947    1.518156   -0.049274
C       0.040146    0.063922    0.012257
C       0.021717   -1.139968    0.063337
C       0.045962   -2.588129    0.086394
C      -0.086719   -3.324191    1.482853
C      -1.598463   -2.907901    1.455180
C      -1.328333   -3.368874   -0.019262
C      -0.559856   -4.521936    0.644708
O      -0.430733   -5.703421    0.573121
H       0.815080    1.871860   -0.761889
H      -0.907468    1.918354   -0.366151
H       0.298773    1.955210    0.927071
H       0.839528   -2.976139   -0.558006
H       0.610771   -3.277244    2.315696
H      -2.293529   -3.504544    2.047449
H      -1.769750   -1.837220    1.564949
H      -2.015678   -3.371792   -0.861801
