16

C       0.043807    1.351327    0.192847
O       0.036452   -0.035633   -0.148176
C      -1.214059   -0.582440   -0.117768
C      -1.867088   -1.102083    1.154939
O      -3.140245   -0.672527    1.521113
C      -1.623583   -2.050339    0.006492
N      -2.607083   -1.855516   -1.065090
C      -2.299890   -0.482465   -1.194372
O      -2.745180    0.376376   -1.897076
H       1.080187    1.684256    0.115250
H      -0.581499    1.928450   -0.497120
H      -0.314698    1.506949    1.219104
H      -1.142140   -1.187425    1.967524
H      -3.535313   -1.344022    2.088425
H      -0.995246   -2.931252    0.032000
H      -3.571085   -2.153154   -0.960921
