17

O       0.037998    1.381813   -0.149770
C       0.011689   -0.002999    0.127184
C      -1.414820   -0.546796    0.125291
C      -2.054963   -0.570392   -1.319306
O      -1.531423    0.257065   -2.325278
C      -1.566102   -2.014229   -1.345294
O      -0.914591   -2.575998   -2.189577
C      -1.516270   -2.129928    0.172159
O      -0.496479   -2.904380    0.717666
H      -0.351396    1.483779   -1.027915
H       0.634705   -0.569002   -0.585635
H       0.457669   -0.145180    1.115376
H      -2.023819   -0.034722    0.870921
H      -3.143210   -0.463100   -1.270053
H      -0.994974   -0.307974   -2.899384
H      -2.474828   -2.421663    0.614279
H       0.090842   -3.160201   -0.005441
