14

C       0.001222    1.545281    0.024120
C       0.001516    0.044548    0.010274
C      -1.138893   -0.703902    0.043588
N      -2.402496   -0.205314    0.120654
N      -1.120515   -2.101670    0.034915
N      -0.061405   -2.746979   -0.003244
O       1.153655   -2.065145   -0.036116
C       1.256198   -0.659952   -0.032876
O       2.364903   -0.195314   -0.066484
H       1.028818    1.909388    0.026815
H      -0.504851    1.958992   -0.858258
H      -0.510535    1.937459    0.911672
H      -2.566451    0.761883   -0.099045
H      -3.157086   -0.851698   -0.043451
