18

C      -0.209398    1.476592    0.261997
N      -0.162459    0.023309    0.176169
C       0.891808   -0.552711    1.000167
C       0.859834   -2.044750    0.950663
N       1.835160   -2.873822    0.741558
C       1.205669   -4.099805    0.842194
C       1.916872   -5.397150    0.673721
N      -0.075070   -4.030209    1.093671
O      -0.314746   -2.648147    1.173545
H       0.708093    1.897926   -0.164253
H      -1.051547    1.847287   -0.328209
H      -0.308029    1.866317    1.291291
H      -1.055294   -0.370202    0.453189
H       1.868283   -0.234650    0.622996
H       0.841212   -0.238704    2.062057
H       2.718090   -5.487984    1.413178
H       1.221839   -6.229585    0.791497
H       2.377992   -5.448932   -0.317041
