18

C       0.007334    1.430364    0.008742
C       0.091711   -0.058490    0.118676
C       1.033075   -0.955001   -0.629442
C       1.022912   -2.224507    0.245347
C       0.997893   -1.731289    1.716824
O       2.089641   -1.042917    2.259729
C      -0.294138   -0.975477    1.305420
C      -0.525910   -2.024279    0.171840
N      -0.438089   -0.976519   -0.946265
H       0.698759    1.920909    0.703765
H       0.256518    1.752023   -1.007250
H      -1.003955    1.784754    0.234515
H       1.763643   -0.616483   -1.355045
H       1.561487   -3.110914   -0.081832
H       0.768504   -2.553993    2.401759
H       2.322513   -0.338901    1.643650
H      -1.044106   -0.637849    2.017815
H      -1.284373   -2.801879    0.144862
