19

C      -0.233862    1.348232   -0.044477
O      -0.216858   -0.051788   -0.165867
C       0.826600   -0.515010   -1.001900
C       0.793730   -2.019309   -1.017308
C      -0.133648   -2.760039   -1.950703
C       1.358744   -2.839823   -2.157551
C       2.020084   -2.235838   -3.378972
H       0.703959    1.735811    0.386382
H      -0.389756    1.844332   -1.016646
H      -1.060960    1.610996    0.619930
H       0.706694   -0.104283   -2.017754
H       1.798873   -0.152201   -0.623189
H       0.914235   -2.448608   -0.026438
H      -0.666123   -3.628281   -1.578623
H      -0.702199   -2.160916   -2.656009
H       1.818699   -3.772669   -1.840440
H       1.507702   -1.332401   -3.721338
H       3.065801   -1.972446   -3.183245
H       2.009493   -2.948684   -4.211020
