23

C      -1.521063   -0.225575   -0.003512
C      -0.000924   -0.088562    0.087382
C       0.740037   -0.621192   -1.160784
C       2.241255   -0.293147   -1.106143
O       2.391769    1.109482   -1.100321
C       3.735664    1.517016   -1.017352
C       0.555512   -2.060693   -1.342784
C       0.425875   -3.251462   -1.472267
C       0.260123   -4.688697   -1.640752
H      -1.918360    0.338105   -0.855253
H      -1.815574   -1.271888   -0.129575
H      -2.003884    0.156387    0.901267
H       0.279861    0.961328    0.211997
H       0.370877   -0.627472    0.967790
H       0.338282   -0.098084   -2.040708
H       2.688559   -0.738378   -0.201278
H       2.752753   -0.734011   -1.976497
H       4.215170    1.159765   -0.092102
H       4.327466    1.151003   -1.871460
H       3.748055    2.609730   -1.022273
H       1.134952   -5.136370   -2.125441
H       0.123782   -5.191386   -0.676773
H      -0.613882   -4.919224   -2.260119
