18

C      -0.061164    1.543981    0.055301
C      -0.034371    0.025695    0.033608
C      -1.344193   -0.597635   -0.406482
N       1.220818   -0.577870   -0.390817
C       0.826214   -0.746530    1.040529
C       1.706882    0.020892    1.993580
O       1.751869   -0.169154    3.179292
C       0.375796   -2.026223    1.513738
C       0.038042   -3.108438    1.914465
H       0.926241    1.970750    0.232131
H      -0.414522    1.914928   -0.913125
H      -0.748164    1.909907    0.824875
H      -1.561864   -0.298018   -1.437986
H      -1.316566   -1.687326   -0.354126
H      -2.170071   -0.249521    0.222062
H       1.057683   -1.456424   -0.878577
H       2.330940    0.786986    1.489350
H      -0.262967   -4.059213    2.279806
