22

C      -0.116303    1.648335    0.012005
C      -0.016165    0.113809    0.002786
C       0.683528   -0.412161   -1.263418
C      -0.040732   -0.115162   -2.571659
O       0.658255   -0.790993   -3.608450
C       0.707476   -0.425698    1.249689
C       0.008341   -0.142831    2.574623
O       0.726860   -0.829753    3.590562
H       0.882073    2.102446    0.004967
H      -0.658314    2.024948   -0.860220
H      -0.641608    2.015473    0.898376
H      -1.039841   -0.291597    0.010358
H       1.700837   -0.004074   -1.324594
H       0.791908   -1.500951   -1.192337
H      -1.085435   -0.463737   -2.504379
H      -0.070676    0.967974   -2.763374
H       0.238050   -0.572541   -4.445209
H       0.814328   -1.513653    1.164851
H       1.725824   -0.018225    1.295834
H      -0.017766    0.938177    2.778521
H      -1.037512   -0.490706    2.523529
H       0.322711   -0.620355    4.437483
