19

C       0.022890    1.541014    0.190843
C       1.543461    1.617855   -0.150057
C       1.605786    0.116659    0.126673
O       2.519361   -0.786220   -0.495154
C       2.673559   -1.543104    0.732002
C       1.849423   -0.492009    1.521956
O       0.622497   -0.855474    2.107348
C      -0.379696   -0.944398    1.082745
C       0.067921   -0.003201   -0.030806
H      -0.183610    1.796758    1.233172
H      -0.652856    2.105004   -0.453357
H       1.704154    1.826200   -1.211919
H       2.185665    2.274321    0.442726
H       2.206672   -2.533569    0.675100
H       3.726984   -1.648117    1.011605
H       2.421077    0.081665    2.254197
H      -0.455115   -1.975889    0.707879
H      -1.335917   -0.678075    1.543670
H      -0.269189   -0.303919   -1.023878
