20

C      -0.018419    1.489480    0.104255
C      -0.052088   -0.015506   -0.105061
C       0.822055   -0.492514   -1.254368
N       0.799351   -1.943290   -1.290943
C       1.408193   -2.500147   -2.486746
C       1.400119   -2.479743   -0.082278
C       0.925838   -1.831716    1.213050
O       1.117560   -2.347812    2.280158
O       0.347444   -0.613945    1.151474
H       1.003453    1.831857    0.293109
H      -0.402911    2.004851   -0.781198
H      -0.636487    1.765276    0.961871
H      -1.079007   -0.349368   -0.297985
H       0.410732   -0.101886   -2.190914
H       1.847762   -0.083791   -1.146853
H       2.483969   -2.257063   -2.578716
H       1.309909   -3.590221   -2.476103
H       0.894355   -2.120479   -3.375019
H       1.193368   -3.549865    0.003431
H       2.504920   -2.370172   -0.079123
