22

C      -0.007093    1.539477    0.004057
C      -0.000000   -0.006446    0.005954
C       0.732118   -0.519989    1.266572
C      -1.454161   -0.530924    0.000600
C       0.699260   -0.487046   -1.192625
C       1.279239   -0.877138   -2.176294
C       1.943554   -1.350598   -3.358745
C       3.267061   -2.035385   -3.251730
N       2.073837   -2.809082   -3.609305
H       1.012316    1.935380    0.008291
H      -0.518374    1.926830   -0.881717
H      -0.526638    1.913539    0.892868
H       0.221947   -0.166038    2.168851
H       0.750831   -1.613402    1.289872
H       1.764947   -0.161264    1.291922
H      -1.992434   -0.181091   -0.884744
H      -1.475617   -1.624440    0.000303
H      -1.986061   -0.176435    0.890198
H       1.739979   -0.785628   -4.265118
H       3.992693   -1.914821   -4.051276
H       3.690087   -2.146204   -2.257763
H       1.734743   -3.307859   -2.789934
