18

C      -0.043845    1.575920    0.049375
C       1.504554    1.431798    0.001601
C       1.778948    0.788089    1.374385
C       0.728775   -0.361813    1.304460
O       1.373368   -1.645790    1.147598
C       2.133431   -1.736942    0.030270
N       2.192377   -0.923331   -0.940590
C       1.246371    0.172862   -0.899884
C      -0.009547    0.029822    0.012600
H      -0.478278    2.068827    0.923874
H      -0.467006    1.996588   -0.865649
H       2.153801    2.247405   -0.315192
H       2.790739    0.392045    1.483470
H       1.590547    1.479214    2.200736
H       0.104023   -0.466335    2.191089
H       2.736279   -2.642896    0.049806
H       0.987686    0.466136   -1.919337
H      -0.865929   -0.581942   -0.267727
