17

C      -0.084768    1.598824    0.012062
C       1.415876    1.836340   -0.001510
C       2.112064    0.838133    0.971936
O       3.121340    0.557097   -0.025265
C       2.092560    0.848734   -0.999222
C       1.088441   -0.384518   -0.995920
O       1.585109   -1.329689   -0.020213
C       1.107943   -0.395120    0.975240
C      -0.013208    0.081151    0.003190
H      -0.574584    2.000030    0.906112
H      -0.592141    2.009575   -0.867749
H       1.799682    2.855185    0.000171
H       2.521769    1.131059    1.939309
H       2.483073    1.152093   -1.971305
H       0.867990   -0.831543   -1.965993
H       0.906682   -0.852574    1.944622
H      -0.933097   -0.501192    0.009159
