15

C      -0.130441    1.524533    0.023618
N       0.102762    0.086413   -0.105405
C       0.671029   -0.538106   -1.256426
C       1.405319   -0.528306    0.102280
C       2.507685    0.237806   -0.577765
O       3.674165    0.405042   -0.347404
C       1.735902    0.344759   -1.931794
O       2.444277   -0.327694   -2.945448
H       0.674376    2.171845   -0.346016
H      -1.050232    1.771678   -0.514287
H      -0.286236    1.745418    1.082912
H       0.184561   -1.388448   -1.720376
H       1.516246   -1.292767    0.863701
H       1.390720    1.331021   -2.265222
H       3.375754   -0.094898   -2.844794
