21

C      -0.138204    1.578463    0.006345
C      -0.011426    0.053172   -0.015279
C      -1.397765   -0.606472   -0.008365
C       0.868763   -0.487169   -1.200201
C       1.962076   -1.267775   -0.439417
C       2.898751   -0.268227    0.260838
O       2.044628    0.245846    1.296727
C       0.835697   -0.501153    1.164389
O       1.246786   -1.773631    0.704404
H       0.842152    2.059107    0.030319
H      -0.680697    1.933329   -0.876504
H      -0.694219    1.912662    0.889889
H      -1.955806   -0.342094   -0.913104
H      -1.311198   -1.695626    0.033194
H      -1.988352   -0.275876    0.853757
H       0.296624   -1.153236   -1.850744
H       1.285901    0.314203   -1.816117
H       2.448561   -2.082407   -0.973667
H       3.769665   -0.758294    0.711081
H       3.235252    0.543086   -0.393516
H       0.342139   -0.571535    2.134536
