21

C       0.301858    1.084989   -0.649454
N      -0.011701    0.025342    0.306418
C      -0.979796    0.359816    1.345801
C      -1.351667   -0.540929    0.219789
C       1.478231    1.896349   -0.190201
C       2.825645    1.342966    0.304896
C       2.932173    2.559347    1.284894
C       1.587562    3.069918    0.749699
N       1.627351    3.255896   -0.698896
H       0.539021    0.605206   -1.608937
H      -0.548104    1.765447   -0.829180
H      -0.776536   -0.044193    2.333463
H      -1.406041    1.361851    1.341824
H      -2.027485   -0.138739   -0.533665
H      -1.423861   -1.614663    0.368647
H       2.717549    0.392656    0.829879
H       3.603975    1.241598   -0.459671
H       2.892533    2.250929    2.332259
H       3.781253    3.239038    1.153051
H       0.825329    3.604581    1.306145
H       2.566869    3.448799   -1.043534
