19

O      -0.025255    1.357897    0.002961
C       0.039285   -0.041424   -0.040528
C       0.700249   -0.644245   -1.285970
O       0.037209   -1.900891   -1.459168
C      -0.682031   -2.131185   -0.240670
C       0.341900   -2.241250    0.928494
C       0.312514   -0.758181    1.343706
C      -1.204362   -0.568731    1.629076
C      -1.331348   -0.766996    0.100988
H       0.834800    1.691595    0.278629
H       0.523042   -0.009194   -2.161398
H       1.785328   -0.787997   -1.173310
H      -1.338194   -2.986219   -0.397731
H       0.011252   -2.893198    1.742620
H       1.303456   -2.606714    0.559827
H       1.083192   -0.394709    2.026482
H      -1.689536   -1.286615    2.296348
H      -1.453880    0.452660    1.917402
H      -2.200613   -0.464081   -0.481109
