20

C       0.148261    1.644660    0.004475
C      -0.121998    0.142011   -0.011689
N       0.624143   -0.516859   -1.077068
C       2.094682   -0.714683   -0.915963
C       1.939005   -2.208512   -1.209310
C       1.009039   -2.843575   -0.230831
C       0.415659   -1.944623   -1.296029
C      -0.500463   -2.441101   -2.337962
O      -0.689688   -3.609803   -2.585633
H       1.204813    1.854270    0.203685
H      -0.107523    2.091424   -0.960451
H      -0.439838    2.134676    0.786197
H       0.099613   -0.284079    0.984155
H      -1.186036   -0.043751   -0.201590
H       2.670400   -0.157241   -1.660352
H       2.483659   -0.482366    0.084964
H       2.519182   -2.778754   -1.922188
H       0.804389   -3.895736   -0.396406
H       0.997976   -2.521281    0.806442
H      -0.997058   -1.627994   -2.912858
