25

C       0.198524    1.348214    0.223553
C       0.182399   -0.188287    0.220590
C       0.832224   -0.745452    1.496677
C      -1.253177   -0.701164    0.091723
C      -2.060042   -0.622961   -1.248483
C      -1.211554   -1.820117   -1.768657
C      -1.588934   -2.179590   -0.301666
C      -3.036133   -1.698568   -0.660909
C      -4.086422   -1.376041    0.392075
H       1.219138    1.732475    0.324131
H      -0.224548    1.755720   -0.700217
H      -0.388495    1.744208    1.061236
H       0.783206   -0.524670   -0.631647
H       0.271835   -0.437449    2.387864
H       0.863688   -1.839664    1.486070
H       1.858715   -0.380606    1.609063
H      -1.809744   -0.339987    0.962574
H      -2.336878    0.276753   -1.802942
H      -1.670828   -2.433828   -2.549130
H      -0.160589   -1.637410   -1.991207
H      -1.318839   -3.087198    0.243177
H      -3.494678   -2.313926   -1.444310
H      -3.717845   -0.759500    1.215085
H      -4.929100   -0.844978   -0.064919
H      -4.483308   -2.300848    0.825916
