19

C      -0.164177    1.527167    0.109038
C       0.116520    0.062677    0.045541
O      -0.758720   -0.838940    0.730058
C       0.651101   -0.914620    1.005902
C       1.276114   -1.775709   -0.091119
C       0.708354   -0.749485   -1.163394
C      -0.327291   -1.300211   -2.148806
C       1.772860   -0.025530   -1.839217
C       2.646649    0.585647   -2.396814
H       0.697088    2.096902   -0.249759
H      -1.025989    1.783509   -0.517520
H      -0.390082    1.825894    1.136035
H       0.956120   -0.795074    2.039465
H       2.366707   -1.790814   -0.074307
H       0.886367   -2.794137   -0.162494
H      -1.135916   -1.783201   -1.595780
H      -0.746734   -0.498227   -2.763825
H       0.131641   -2.032656   -2.819378
H       3.419168    1.118416   -2.893906
