21

C      -0.244848    1.529305   -0.134836
C       0.018035    0.008171   -0.004486
C       0.813440   -0.288458    1.289250
C      -1.294555   -0.652493    0.110486
N      -2.330643   -1.158395    0.199896
C       0.758812   -0.537907   -1.253190
C       2.100777    0.104925   -1.553961
C       0.557009   -1.955573   -1.651861
N      -0.013475   -0.860996   -2.463763
H       0.699116    2.078571   -0.116094
H      -0.763133    1.759516   -1.069239
H      -0.859774    1.883148    0.696547
H       0.255286    0.045749    2.167823
H       1.009730   -1.358593    1.391074
H       1.768762    0.241425    1.273298
H       2.818751   -0.044626   -0.741814
H       2.512535   -0.344889   -2.459722
H       2.006581    1.179172   -1.737750
H       1.373560   -2.497956   -2.120703
H      -0.125035   -2.571677   -1.073297
H      -1.013874   -0.802411   -2.281544
