18

C       0.051802    1.264782    0.514631
N      -0.037112    0.073920   -0.330084
C       1.215621   -0.662814   -0.374280
C      -1.167383   -0.729456   -0.102804
C      -1.324538   -2.001463    0.407773
C      -2.715788   -2.314440    0.349652
C      -3.364639   -1.230237   -0.183445
N      -2.415389   -0.269250   -0.455969
H       0.821121    1.935772    0.118814
H      -0.900570    1.799618    0.513528
H       0.305070    1.024089    1.561906
H       1.522106   -1.057799    0.610749
H       1.122751   -1.501900   -1.067399
H       2.010648    0.000537   -0.729759
H      -0.537337   -2.629591    0.793315
H      -3.181505   -3.231646    0.676240
H      -4.407755   -1.051797   -0.387417
H      -2.574319    0.587976   -0.955767
