21

O      -0.144378    1.457600   -0.015630
C       0.015013    0.033756   -0.094313
C      -1.366681   -0.587670    0.037189
C      -1.393397   -2.126682    0.165143
C      -2.878035   -2.357293    0.575307
C      -2.418939   -1.648921    1.882061
C      -1.056692   -2.364606    1.668760
C      -2.116523   -0.228235    1.381786
O      -1.325700    0.466601    2.324807
H       0.725625    1.863052   -0.081463
H       0.461051   -0.248528   -1.059205
H       0.680824   -0.319808    0.702837
H      -1.959846   -0.261957   -0.824541
H      -0.919805   -2.703585   -0.631518
H      -3.658117   -1.882392   -0.029045
H      -3.115437   -3.411446    0.734533
H      -2.976479   -1.724472    2.815457
H      -1.096967   -3.423767    1.933401
H      -0.168628   -1.899866    2.099990
H      -3.043032    0.326715    1.175626
H      -0.946724    1.220518    1.851785
