23

C       0.086943    1.581567   -0.015100
C       0.139020    0.051371   -0.039691
C       0.445743   -0.547120    1.339028
C       0.668842   -2.062584    1.317784
C      -0.564395   -2.858822    0.917417
O       1.802473   -2.407706    0.456387
C       2.637726   -2.726427    1.583774
C       1.442527   -2.609457    2.551989
O       1.537269   -1.712048    3.631330
H       1.042187    2.005129    0.314418
H      -0.132894    1.988049   -1.007468
H      -0.687047    1.943077    0.671521
H      -0.816532   -0.333025   -0.416400
H       0.908558   -0.285054   -0.743467
H       1.343729   -0.071541    1.747072
H      -0.362688   -0.318367    2.044976
H      -0.894916   -2.592257   -0.089970
H      -0.346258   -3.930573    0.925584
H      -1.388419   -2.663912    1.612510
H       3.112772   -3.709326    1.480702
H       3.408404   -1.965178    1.766403
H       1.058159   -3.584095    2.878791
H       1.967504   -2.160402    4.365298
