21

C      -0.172545    1.456699   -0.045093
C       0.041575   -0.052394   -0.018196
C       1.275663   -0.552046   -0.831945
C       2.102986   -0.513817    0.479152
C       0.761397   -0.598228    1.269123
C       0.374872   -2.020469    1.571793
C       0.551633   -3.042902    0.733690
C       1.205262   -2.999801   -0.630844
O       1.072990   -1.825788   -1.417744
H       0.744024    2.005660    0.198107
H      -0.501533    1.786156   -1.036908
H      -0.937860    1.757823    0.678332
H      -0.882016   -0.576786   -0.275999
H       1.610633    0.092904   -1.650529
H       2.843416   -1.297323    0.649586
H       2.590317    0.456440    0.600182
H       0.681541    0.027486    2.161678
H      -0.099257   -2.210689    2.531303
H       0.244713   -4.039479    1.044041
H       2.272872   -3.257742   -0.515833
H       0.772358   -3.790336   -1.253405
