20

O      -0.113752    1.435074   -0.076546
C      -0.070052    0.038315   -0.012371
C      -0.520635   -0.670928    1.239559
C      -1.379799   -0.700225   -0.008911
C      -2.701527    0.073381   -0.066206
C      -3.415130   -0.504382   -1.301060
C      -3.027610   -1.992153   -1.269786
C      -1.541239   -1.980054   -0.849309
H       0.547182    1.781891    0.531300
H       0.745918   -0.413075   -0.580148
H      -0.001816   -1.575700    1.542816
H      -0.863522   -0.044701    2.058393
H      -3.296329   -0.128812    0.833603
H      -2.539406    1.151727   -0.119245
H      -4.496373   -0.339319   -1.286732
H      -3.023673   -0.035533   -2.212286
H      -3.626383   -2.510148   -0.510733
H      -3.194801   -2.506700   -2.220348
H      -0.896562   -1.934532   -1.735527
H      -1.259245   -2.882231   -0.297399
