20

C       0.141871    1.562987   -0.366540
O      -0.056039    0.188321   -0.133714
C       0.571688   -0.678256   -1.074030
C       2.080155   -0.785641   -0.835964
C      -0.124560   -2.034848   -0.939036
C      -1.598768   -1.972165   -1.260991
C      -2.116506   -2.293936   -2.597740
O      -2.248315   -3.220182   -1.518623
H       1.190172    1.869678   -0.239930
H      -0.181668    1.854878   -1.378215
H      -0.464730    2.102799    0.365088
H       0.395196   -0.285678   -2.090906
H       2.536982   -1.456775   -1.570122
H       2.572844    0.186447   -0.926113
H       2.278851   -1.179773    0.165674
H       0.356465   -2.764015   -1.599647
H       0.007231   -2.391153    0.090229
H      -2.177737   -1.287071   -0.643902
H      -3.045590   -1.845012   -2.946872
H      -1.422895   -2.590357   -3.384679
