19

C      -0.007017    1.609758   -0.239872
C      -0.018912    0.107899    0.017647
O       0.603826   -0.565412   -1.085589
C       1.765209   -1.219414   -0.613706
O       2.084011   -0.653504    0.631563
C       0.816923   -0.384686    1.227088
C       0.999421    0.571367    2.400731
C       1.828602   -0.043921    3.512377
O       1.496722   -0.065537    4.669586
H       1.017472    1.991358   -0.278300
H      -0.480044    1.813397   -1.204032
H      -0.560517    2.152127    0.533261
H      -1.052451   -0.249340    0.103929
H       1.570830   -2.302171   -0.512129
H       2.599167   -1.050966   -1.302557
H       0.378278   -1.330319    1.588228
H       1.524510    1.467456    2.047171
H       0.032775    0.871033    2.814706
H       2.792569   -0.482806    3.177268
