16

O      -0.042397    1.447333    0.023879
C       0.006842    0.049075    0.030521
C      -1.368162   -0.617472   -0.037412
N      -2.266048    0.113339   -0.971328
C      -2.398807   -1.088594   -1.843297
C      -1.231493   -1.752470   -1.082283
O       0.032816   -1.587802   -1.721071
C       0.740325   -0.533705   -1.204295
O       1.770297   -0.168419   -1.680284
H      -0.714771    1.669980   -0.639110
H       0.565769   -0.257065    0.921731
H      -1.797748   -0.880297    0.931511
H      -3.130801    0.447245   -0.564108
H      -3.340999   -1.634855   -1.717771
H      -2.227280   -0.897574   -2.906324
H      -1.340415   -2.794592   -0.784056
