17

C      -1.338338    0.921733    0.424000
C      -0.116960    0.180638   -0.042375
N       0.917705   -0.059744    0.667059
O       0.797374    0.437754    1.966254
C      -0.094090   -0.309621   -1.479104
O      -0.254216    0.779705   -2.376748
C       1.152929   -1.154298   -1.811499
C       1.127794   -1.642836   -3.187480
N       1.113524   -2.043647   -4.270800
H      -1.974808    0.262748    1.026265
H      -1.057503    1.763292    1.061026
H      -1.912685    1.281557   -0.430713
H       1.644210    0.199968    2.359528
H      -0.985971   -0.926227   -1.645627
H       0.488183    1.382608   -2.250029
H       2.058231   -0.559814   -1.651294
H       1.221107   -2.003512   -1.125479
