12

N       0.070417    1.394945    0.161341
C       0.004668    0.029567    0.034888
N      -1.139156   -0.569031   -0.014397
O      -1.119318   -1.956691   -0.031105
C       0.052707   -2.712034   -0.019637
O      -0.057652   -3.901523   -0.012919
N       1.264203   -2.028035   -0.026495
C       1.238211   -0.749184    0.004035
O       2.366231   -0.036835   -0.011799
H       0.894900    1.834242   -0.217514
H      -0.796754    1.880951   -0.017296
H       3.102872   -0.667866   -0.047634
