18

C      -0.252928    0.596922   -0.531083
O      -0.480403   -0.156655    0.650246
C       0.662005   -0.359275    1.444455
C       0.190769   -0.837715    2.824390
O       0.039856   -2.274597    2.721102
C       0.687502   -2.716105    1.619347
N       0.639160   -3.868236    1.107911
C       1.494867   -1.588966    1.010130
O       1.704403   -1.757656   -0.359965
H       0.429712    0.083766   -1.213439
H      -1.226506    0.725344   -1.009817
H       0.155175    1.590880   -0.290141
H       1.263620    0.557507    1.512631
H       0.917861   -0.611930    3.611471
H      -0.780851   -0.414812    3.081903
H       0.017905   -4.497162    1.615368
H       2.459093   -1.538715    1.548059
H       1.448447   -2.675054   -0.546077
