20

C       0.013257    1.540794    0.050873
C       0.009015    0.024523   -0.007096
C       0.324037   -0.656073   -1.380249
C      -0.795170   -1.671083   -1.079415
C      -0.520453   -2.650822    0.076732
C       0.105286   -2.000457    1.257984
C       0.812361   -0.673419    1.103021
N      -1.356812   -1.855441    1.069662
C      -1.371976   -0.754318    0.021047
H       1.026251    1.939127   -0.081299
H      -0.614583    1.970675   -0.737041
H      -0.363364    1.901251    1.014970
H       0.053952   -0.009496   -2.221424
H       1.341709   -1.030398   -1.531324
H      -1.403103   -2.082931   -1.884432
H      -0.613162   -3.730641    0.007670
H       0.378147   -2.649777    2.085403
H       1.872417   -0.773905    0.846560
H       0.747316   -0.117809    2.046965
H      -2.305919   -0.199426   -0.048689
