27

C      -2.199717    1.687549   -1.154659
C      -1.812757    0.221974   -1.400322
C      -0.615477    0.142013   -2.358357
C      -1.538707   -0.484893   -0.059347
C      -1.346725   -2.015442   -0.092182
C      -0.917922   -2.517571    1.296553
C      -2.598739   -2.744539   -0.554534
C      -2.851539   -3.068578   -2.006895
C      -2.524359   -4.172958   -1.033016
H      -2.421368    2.203698   -2.094916
H      -3.083615    1.765240   -0.512670
H      -1.383749    2.231570   -0.663127
H      -2.666220   -0.273613   -1.879558
H      -0.345165   -0.889972   -2.600800
H      -0.833027    0.654225   -3.301668
H       0.268068    0.621058   -1.918401
H      -0.646940   -0.030133    0.395877
H      -2.367462   -0.264850    0.628997
H      -0.538708   -2.256736   -0.796887
H      -0.754688   -3.599451    1.293463
H       0.007700   -2.033605    1.625732
H      -1.689373   -2.300575    2.045235
H      -3.484523   -2.496642    0.028498
H      -3.865205   -2.996818   -2.386413
H      -2.090330   -2.795348   -2.730262
H      -1.542649   -4.631143   -1.104626
H      -3.311968   -4.860840   -0.745733
