19

C      -0.010533    1.485013   -0.029218
C       0.079914   -0.026646    0.034303
O       0.145823   -0.626234    1.089101
C       0.068927   -0.752136   -1.269405
C       0.829555   -2.074950   -1.345456
C      -0.647120   -2.091484   -1.321320
C      -1.596954   -2.689292   -0.289344
O      -2.493462   -3.114477   -1.346493
C      -1.638857   -2.575329   -2.373770
H       0.826778    1.890438   -0.609011
H      -0.928883    1.787150   -0.546142
H       0.000542    1.902961    0.977808
H       0.032366   -0.144465   -2.168350
H       1.342033   -2.297297   -2.275670
H       1.347879   -2.363992   -0.436842
H      -1.200595   -3.537797    0.280670
H      -2.073910   -1.985429    0.400084
H      -2.138949   -1.794144   -2.962057
H      -1.265824   -3.352999   -3.054099
