19

C       0.089715    1.345676    0.169591
O       0.031723   -0.065530    0.024524
C       0.615049   -0.529178   -1.160258
O       2.010689   -0.368827   -1.198303
C       2.603754   -1.478837   -0.502058
C       1.764152   -2.697476   -0.905183
C       1.701035   -3.861358    0.080862
C       0.397570   -2.060114   -1.171645
O      -0.645354   -2.624841   -1.351514
H       1.124871    1.704778    0.197401
H      -0.437867    1.848059   -0.654396
H      -0.406073    1.587475    1.111664
H       0.197795   -0.017342   -2.038010
H       3.648325   -1.533749   -0.813132
H       2.564791   -1.316023    0.583417
H       2.119271   -3.057484   -1.881098
H       1.393374   -3.516687    1.073280
H       0.969969   -4.598996   -0.260226
H       2.672957   -4.353952    0.176628
