14

C      -0.063231    1.589415    0.016336
C       0.020533    0.056278    0.002073
N       0.805898   -0.467804   -1.096235
C       1.852992   -1.273982   -0.699640
O       2.636826   -1.850001   -1.423815
C       1.788313   -1.263294    0.795445
C       0.754858   -0.520231    1.191122
H       0.937901    2.026521    0.061364
H      -0.563240    1.957225   -0.885062
H      -0.637711    1.933197    0.882341
H      -1.004195   -0.348716   -0.023718
H       0.582573   -0.332089   -2.067629
H       2.502345   -1.801321    1.402420
H       0.440063   -0.312754    2.206218
