23

C      -0.220251    1.746285   -0.173237
C       0.003485    0.231271   -0.068409
C      -1.306262   -0.570624    0.078849
C      -2.076000   -0.293783    1.354371
C      -3.169453    0.746697    1.408365
C      -3.516988   -0.719654    1.477605
C       0.774343   -0.265537   -1.273476
C       2.235184   -0.406823   -1.277648
O       1.387478   -1.552802   -1.165277
H       0.731545    2.279839   -0.263968
H      -0.826150    1.994239   -1.053048
H      -0.742596    2.128733    0.706516
H       0.623407    0.025608    0.815127
H      -1.953996   -0.370273   -0.786877
H      -1.051724   -1.636905    0.034029
H      -1.481526   -0.396391    2.259955
H      -3.275420    1.345219    2.306789
H      -3.407881    1.278321    0.492900
H      -3.985074   -1.170145    0.608107
H      -3.858406   -1.125503    2.423436
H       0.283413   -0.095318   -2.235591
H       2.791003   -0.325243   -2.210894
H       2.799004   -0.154617   -0.379907
