21

O      -0.203684    0.080329    0.061644
C      -0.052641    1.269634    0.184704
C       1.264736    2.008681    0.068721
C       1.638822    2.575527    1.487435
C       2.588223    1.364311    1.687320
C       2.488031    1.051706    0.169903
C       1.271454    3.001706   -1.077241
C       0.763035    2.638370   -2.451460
C       0.043109    3.684424   -1.636917
H      -0.916863    1.924743    0.440579
H       2.168867    3.528196    1.401932
H       0.820555    2.703002    2.203427
H       3.581252    1.583256    2.084718
H       2.135522    0.581005    2.300158
H       2.294327    0.017167   -0.116479
H       3.341702    1.431290   -0.397425
H       2.166457    3.619705   -1.065544
H       1.337677    2.955205   -3.314501
H       0.279702    1.674081   -2.571017
H      -0.934999    3.436830   -1.241527
H       0.141267    4.723365   -1.931684
