21

C       0.036411    1.355825   -0.149149
O      -0.076829   -0.055051   -0.056704
C      -1.376665   -0.580745    0.078258
C      -2.045396   -0.122319    1.386511
O      -2.134459   -0.120632   -1.038783
C      -3.237368   -0.933324   -1.402640
C      -2.786346   -2.331038   -1.826651
C      -1.809857   -2.872680   -0.818225
C      -1.188069   -2.081282    0.049092
H       1.078188    1.558077   -0.408938
H      -0.614783    1.762810   -0.928825
H      -0.185997    1.856367    0.803144
H      -2.198002    0.959499    1.383356
H      -3.019144   -0.603437    1.508690
H      -1.421809   -0.392919    2.243218
H      -3.953150   -1.014893   -0.569879
H      -3.739106   -0.406683   -2.219407
H      -3.658036   -2.991093   -1.917434
H      -2.318297   -2.295963   -2.820012
H      -1.612101   -3.941539   -0.821037
H      -0.481998   -2.469111    0.776413
