19

C      -0.063515    1.566330    0.021758
C      -0.084071    0.038791   -0.077573
C       0.854512   -0.497337   -1.166761
C       0.871101   -2.018114   -1.239129
C      -0.312962   -2.733133   -1.960239
O       0.234434   -2.265416   -3.262452
C       1.457097   -2.680337   -2.520720
C       0.628375   -3.947942   -2.180143
O       0.654918   -5.132521   -2.207811
H       0.941059    1.933534    0.259188
H      -0.368657    2.027932   -0.923687
H      -0.741952    1.923849    0.802243
H       0.193895   -0.396208    0.891678
H      -1.107725   -0.301287   -0.280728
H       0.566483   -0.094696   -2.142703
H       1.876368   -0.147740   -0.967753
H       1.182252   -2.476921   -0.293024
H      -1.387206   -2.655764   -1.806826
H       2.418180   -2.537065   -3.010479
