17

C      -0.228803    1.532847    0.221608
C       0.023671    0.050236   -0.019190
C       0.818832   -0.359289   -1.327499
N       1.813475   -0.996618   -0.436113
C       1.191963   -0.591669    0.728678
N       1.767866   -0.797403    1.844100
C       3.022405   -1.468817    1.425830
C       3.065953   -1.522454   -0.137804
O       3.934600   -1.913836   -0.871863
H       0.691468    2.114240    0.108765
H      -0.968912    1.920120   -0.485305
H      -0.606893    1.696220    1.234573
H      -0.899967   -0.525282    0.089197
H       0.317860   -1.058631   -1.999712
H       1.223011    0.483150   -1.895040
H       3.895960   -0.927785    1.803246
H       3.071746   -2.487207    1.826434
