19

C       0.155290    1.538830   -0.138185
C       0.070115    0.039286    0.027999
O       0.935926   -0.677009   -0.890992
C       1.401671   -1.537181    0.159212
C       0.756014   -0.652094    1.255799
N       1.752105    0.090429    2.019835
C      -0.212706   -1.406471    2.174772
N       0.200251   -1.514355    3.463739
O      -1.254898   -1.875917    1.754088
H       1.173196    1.909519    0.016066
H      -0.152750    1.812453   -1.152010
H      -0.516482    2.044185    0.564706
H      -0.962410   -0.312282   -0.071119
H       0.972700   -2.543675    0.092913
H       2.496151   -1.603535    0.199234
H       2.500248    0.408030    1.411447
H       1.339404    0.923355    2.432242
H       1.127991   -1.205514    3.706388
H      -0.334528   -2.091213    4.091554
