17

C      -0.649022    1.009117    0.079876
N       0.538365    0.149712    0.174846
C       0.927762   -0.481510   -1.022010
C       1.867381   -0.161875   -1.981973
C       1.849451   -1.200915   -2.961339
N       2.714926   -1.285856   -4.072577
C       0.892113   -2.113289   -2.576387
N       0.339482   -1.660039   -1.389397
H      -0.541912    1.831859   -0.643963
H      -1.509729    0.406647   -0.223814
H      -0.865715    1.431640    1.065615
H       1.317258    0.675876    0.550714
H       2.492000    0.719200   -1.989923
H       2.856586   -0.383846   -4.511185
H       2.368588   -1.928008   -4.774769
H       0.559877   -3.028564   -3.038022
H      -0.290131   -2.173176   -0.798379
