18

N      -0.143622    1.344288    0.201449
C      -0.031319    0.112333   -0.043046
O       1.167187   -0.523346   -0.139510
C       1.451973   -1.540105   -1.117658
C       0.427659   -2.668101   -1.233745
C      -0.825127   -2.217074   -1.963215
C      -2.196793   -2.462854   -1.366934
C      -1.593353   -1.096024   -1.321121
O      -1.140752   -0.681877   -0.051956
H       0.783232    1.768946    0.225955
H       1.590062   -1.054265   -2.093823
H       2.420281   -1.934384   -0.799050
H       0.899140   -3.497741   -1.773476
H       0.188402   -3.035767   -0.231800
H      -0.752218   -2.200293   -3.047143
H      -3.036134   -2.627036   -2.032816
H      -2.244185   -3.003874   -0.428292
H      -2.014747   -0.290445   -1.916686
