16

C      -0.158373    1.479011    0.039621
C       0.139322    0.022072    0.028480
C       0.647992   -0.987501   -0.902787
C       1.461445   -1.728445    0.162784
C       0.511390   -1.069170    1.182066
O       0.875846   -0.904836    2.488115
C      -0.854187   -1.585831    0.789682
O      -1.778393   -2.009730    1.419487
N      -0.824538   -1.034202   -0.550698
H       0.733355    2.051320    0.314572
H      -0.494756    1.808015   -0.947490
H      -0.946613    1.710645    0.763358
H       0.851454   -0.902751   -1.962185
H       1.494431   -2.822450    0.145963
H       2.471996   -1.318391    0.231998
H       0.078991   -0.988536    3.029227
