20

C       0.020936    1.575069    0.021707
C       0.004118    0.047369   -0.035896
C      -1.420695   -0.549725    0.064439
C      -1.389323   -2.006663   -0.117281
C      -1.338044   -3.198746   -0.260421
N      -2.109672   -0.179211    1.300177
C      -1.589439   -0.642369    2.577530
C      -3.282763    0.520992    1.261968
O      -3.937594    0.853556    2.225971
H       1.043478    1.951811   -0.070566
H      -0.568390    2.010179   -0.793162
H      -0.390675    1.947401    0.964257
H       0.435902   -0.303929   -0.978945
H       0.625961   -0.376690    0.759611
H      -2.015943   -0.118352   -0.751378
H      -1.308568   -4.252204   -0.393892
H      -0.647854   -0.143529    2.832794
H      -2.333458   -0.404161    3.337351
H      -1.419673   -1.723102    2.547792
H      -3.579173    0.765575    0.222859
