13

N       0.219631    1.410188   -0.049681
C       0.050269   -0.007875   -0.014467
C      -1.069203   -0.809710    0.099244
N      -0.645353   -2.108665    0.078371
C       0.731424   -2.171521   -0.047041
C       1.177916   -0.873349   -0.105980
O       2.457176   -0.436625   -0.229433
H      -0.118806    1.857136    0.796098
H      -0.270021    1.834804   -0.830429
H      -2.114104   -0.559671    0.191594
H      -1.246047   -2.909598    0.144470
H       1.257250   -3.109772   -0.082308
H       2.384470    0.530335   -0.236608
