17

N       0.231394    1.478134   -0.052074
C       0.062658    0.060819    0.016333
C      -0.055393   -0.638398    1.401355
C      -1.535207   -0.163529    1.484510
C      -1.367413   -0.679354    0.022874
C      -2.355532   -0.695707   -1.019961
N      -3.136913   -0.677022   -1.873508
C      -0.622732   -1.888782    0.644612
O       0.181452   -2.613196   -0.239086
H       0.200347    1.804624   -1.011090
H      -0.456943    1.999598    0.477251
H       0.764618   -0.414914   -0.666397
H       0.681079   -0.628199    2.204296
H      -2.208696   -0.743689    2.120440
H      -1.718903    0.902981    1.609072
H      -1.256439   -2.542110    1.256256
H       0.662044   -3.280682    0.259998
