25

C      -0.026241    1.580287   -0.093712
C       0.052641    0.049994   -0.011233
C       0.668916   -0.529772   -1.296084
C       0.563965   -2.057966   -1.340141
C       0.939613   -2.671460   -0.019102
C       1.045518   -1.973121    1.109252
C       0.778468   -0.487389    1.261540
C       2.123509    0.228343    1.525266
C      -0.125780   -0.297309    2.499476
H       0.959335    2.026280   -0.263434
H      -0.667217    1.879904   -0.929597
H      -0.442959    2.026781    0.814062
H      -0.978125   -0.329875    0.047102
H       0.174963   -0.091403   -2.170965
H       1.724380   -0.234983   -1.359635
H      -0.459455   -2.360882   -1.609270
H       1.203755   -2.462250   -2.135027
H       1.132283   -3.742149   -0.005685
H       1.341748   -2.483768    2.025149
H       2.784116    0.184236    0.654442
H       1.974199    1.279504    1.791447
H       2.649700   -0.250819    2.357913
H       0.360961   -0.691144    3.398629
H      -0.343226    0.759846    2.681656
H      -1.077144   -0.825241    2.376939
