17

C       0.942892    0.683856    0.461588
C       0.485492    0.197787   -0.893688
C      -0.525375    0.396991    0.218026
N      -1.271205   -0.642876    0.842910
C      -0.832596   -1.793417    1.107162
N      -1.542750   -2.815168    1.713365
C      -0.738666   -3.941006    1.845749
C       0.453577   -3.626671    1.330174
O       0.433247   -2.320427    0.868433
H       1.497460   -0.016226    1.073738
H       1.242357    1.720371    0.575225
H       0.466264    0.895895   -1.723893
H       0.742327   -0.818699   -1.164159
H      -1.140136    1.284910    0.107000
H      -2.498399   -2.705488    1.997650
H      -1.089794   -4.854996    2.292238
H       1.374623   -4.168539    1.213298
