17

O       0.028173    1.400763   -0.010154
C      -0.009384    0.021209    0.045161
C       0.275076   -0.724796    1.383274
C      -0.640175   -1.836857    0.806815
C      -1.370415   -0.735738   -0.006175
C       0.168064   -2.709577   -0.143495
O       0.952104   -1.928045   -1.078175
C       0.895796   -0.585809   -1.022059
O       1.533675    0.096954   -1.782969
H       0.637383    1.621057   -0.733473
H       1.309487   -0.971192    1.638015
H      -0.198253   -0.193033    2.211261
H      -1.217390   -2.456000    1.495272
H      -2.111523   -0.205756    0.595701
H      -1.792905   -0.991821   -0.981641
H       0.876986   -3.343708    0.399257
H      -0.480834   -3.352735   -0.747276
