15

N      -0.050070   -1.157075   -0.067875
C      -0.043082   -0.002030   -0.040655
C      -0.027175    1.458633    0.000423
C      -1.009945    1.995190   -0.938591
N      -1.784970    2.426573   -1.678972
C       0.075859    2.147907    1.422636
C       1.530457    1.602113    1.506212
C       1.385456    2.171810    0.065673
C       0.662833    3.394763    0.700451
H      -0.707826    2.107919    2.177519
H       2.200719    2.157727    2.162866
H       1.660578    0.524788    1.612814
H       2.112491    2.159397   -0.744804
H      -0.007842    3.972020    0.063356
H       1.290002    4.039418    1.317085
