21

C      -0.051700    1.515943   -0.177314
C      -0.001263    0.031150    0.080736
O       1.268179   -0.625725   -0.033027
C       0.620083   -0.607399    1.252329
C       1.336392    0.153348    2.352960
C       2.352729   -0.773283    3.042569
C       1.679084   -2.083189    3.454657
O       1.095524   -2.738036    2.340442
C       0.094211   -1.954215    1.717907
H       0.752641    2.049243    0.332359
H       0.039660    1.712077   -1.250752
H      -1.010914    1.926892    0.156149
H      -0.813973   -0.524867   -0.395386
H       1.831495    1.038722    1.948620
H       0.594500    0.494906    3.088125
H       3.168622   -1.000155    2.347362
H       2.789341   -0.283743    3.920158
H       2.402057   -2.787342    3.876064
H       0.910251   -1.886717    4.224117
H      -0.750062   -1.791646    2.412824
H      -0.264947   -2.531120    0.862048
