19

C       0.192286    1.477666    0.226077
C      -0.177577    0.022983   -0.077393
C       0.610262   -0.558679   -1.252456
O       2.066451   -0.523222   -1.025029
C       2.165400   -1.919123   -1.324203
C       1.441073   -2.733657   -0.303936
C       0.673818   -2.089440   -1.442478
C       0.287228    0.116328   -2.508271
C      -0.007862    0.654425   -3.541895
H       1.258197    1.560234    0.455301
H      -0.022032    2.125834   -0.628519
H      -0.374143    1.848039    1.085359
H       0.007873   -0.601134    0.801949
H      -1.244872   -0.061953   -0.314027
H       2.993431   -2.247542   -1.940437
H       1.543418   -3.810174   -0.404524
H       1.361774   -2.374198    0.717185
H       0.078059   -2.642285   -2.154555
H      -0.255977    1.136675   -4.455131
