16

C       0.009982    1.523183    0.010380
O       1.334435    2.022589   -0.000209
C       2.328129    0.940947   -0.015660
C       2.073513    0.102712    1.222052
C       0.845503   -0.412889    1.234530
C       0.036236   -0.053108    0.001976
C       0.820812   -0.400045   -1.250068
C       2.048896    0.115489   -1.256646
H      -0.506686    1.880424    0.910300
H      -0.524441    1.889646   -0.875351
H       3.295594    1.440290   -0.022693
H       2.805068    0.017061    2.015959
H       0.407730   -0.972214    2.052687
H      -0.976264   -0.456987    0.009950
H       0.366810   -0.950928   -2.065102
H       2.764533    0.038099   -2.065764
