18

C       0.113749    1.242443    0.545988
C       0.153742   -0.216236    0.133101
O       1.178146   -0.806301   -0.103711
C      -1.207117   -0.901750    0.032522
N      -1.196894   -2.380623    0.154734
C      -2.244779   -2.346678    1.200706
C      -1.634623   -2.289766    2.614148
O      -1.496793   -0.840883    2.526331
C      -2.163725   -0.804563    1.254376
H       1.086881    1.705403    0.377727
H      -0.663765    1.792895    0.004511
H      -0.134176    1.290037    1.612765
H      -1.704714   -0.524847   -0.875550
H      -1.451467   -2.876437   -0.689198
H      -3.147153   -2.934466    1.031062
H      -2.312660   -2.563800    3.431676
H      -0.671075   -2.794937    2.725086
H      -2.989100   -0.090250    1.225862
