18

C       0.138566    1.551741    0.083917
C      -0.044263    0.025346    0.036784
O      -1.406386   -0.304451    0.009861
C       0.656998   -0.582222   -1.180477
O      -0.017199   -1.132090   -2.034567
C       2.132324   -0.485929   -1.273855
C       2.862317   -1.621546   -1.981739
C       2.737847   -0.305433   -2.662528
H       1.189237    1.838277    0.188294
H      -0.265087    2.008977   -0.824342
H      -0.414470    1.946424    0.939676
H       0.429207   -0.411549    0.933217
H      -1.532630   -0.774478   -0.831143
H       2.639119   -0.010544   -0.442633
H       3.822151   -1.914304   -1.572564
H       2.233829   -2.430606   -2.335045
H       2.025650   -0.226872   -3.475567
H       3.608628    0.335373   -2.736978
