25

C      -0.008642    1.600834   -0.009063
C       0.023036    0.068584   -0.049172
C      -1.368670   -0.571089   -0.067474
C      -2.232530   -0.241112   -1.312626
C      -3.293775   -1.341240   -1.359635
C      -2.913853   -2.628582   -2.041193
C      -2.777190   -2.508156   -0.541681
C      -1.419175   -2.129441    0.072119
C      -0.224920   -2.885300   -0.529711
H       1.002661    2.015983    0.046215
H      -0.488075    2.017778   -0.900638
H      -0.564313    1.961857    0.864020
H       0.592449   -0.258162   -0.928556
H       0.575902   -0.299281    0.825261
H      -1.921766   -0.179413    0.798260
H      -2.685030    0.751539   -1.237746
H      -1.619915   -0.237403   -2.224471
H      -4.340021   -1.057507   -1.332735
H      -3.713062   -3.262029   -2.412763
H      -2.023626   -2.639624   -2.662176
H      -3.456055   -3.099848    0.063170
H      -1.445386   -2.379433    1.139299
H      -0.064791   -2.646024   -1.585687
H       0.702683   -2.652578    0.002291
H      -0.386612   -3.965808   -0.460287
