16

O      -0.110505    1.498267    0.437025
C       0.054373    0.160246    0.154419
C      -0.894827   -0.981979   -0.055564
C      -0.397766   -1.209354   -1.529250
C       0.863198   -0.503956   -0.992338
C       1.826691   -1.305759   -0.492900
C       1.627556   -1.481075    1.010257
C       0.196053   -0.925584    1.131733
H      -0.437019    1.939471   -0.355426
H      -1.935640   -1.044453    0.253560
H      -0.260427   -2.228347   -1.901614
H      -1.036540   -0.644206   -2.218640
H       2.268057   -2.111934   -1.074013
H       1.725262   -2.549203    1.240550
H       2.307622   -0.947250    1.689436
H      -0.284431   -0.836740    2.104398
