19

C      -0.065947    1.513223    0.063185
C       0.058125    0.006427    0.071668
C       1.329937   -0.781738   -0.189708
O       1.438771   -1.802514   -1.113789
C       2.523712   -0.107858    0.482967
O       1.803259   -0.038967    1.744873
C       0.704210   -0.786008    1.187724
C       0.057109   -1.796480    2.076761
O      -0.706921   -1.192395    3.112372
H       0.737130    1.971135    0.645771
H      -0.031928    1.918513   -0.954057
H      -1.015018    1.820089    0.514080
H      -0.797940   -0.534565   -0.330545
H       1.218068   -1.452519   -1.983668
H       3.386272   -0.778334    0.565165
H       2.844647    0.878391    0.128180
H      -0.636962   -2.406116    1.490384
H       0.827313   -2.464799    2.490425
H      -0.101127   -0.646517    3.625446
