16

O      -0.356525   -0.005532   -0.616963
C      -0.152277    1.144097   -0.285433
N      -0.948722    1.974721    0.498049
C      -0.365780    3.226199    0.664030
C       0.812071    3.224543   -0.001730
N       0.933421    1.958078   -0.586478
C       1.834813    4.266983   -0.176214
C       1.999308    5.334533    0.839815
N       3.037577    4.302886    0.699407
H      -1.827389    1.664444    0.872516
H      -0.846028    4.017440    1.212847
H       1.718877    1.621622   -1.115680
H       2.078132    4.509078   -1.209503
H       2.293591    6.330766    0.523829
H       1.357020    5.307950    1.715434
H       2.919330    3.615585    1.441434
