13

N       0.068313    1.191474   -0.222725
C       0.051196   -0.037860    0.042438
O       1.083339   -0.759409    0.579808
C       0.782381   -2.172595    0.627153
C      -0.737023   -2.315917    0.407515
C      -1.144366   -0.953548   -0.147504
O      -2.198569   -0.648035   -0.623661
C       1.573706   -2.873049   -0.395252
N       2.185914   -3.441383   -1.192658
H       0.977391    1.608972   -0.012143
H       1.100023   -2.528390    1.610124
H      -1.009680   -3.122799   -0.272775
H      -1.253897   -2.479257    1.357931
