23

C       0.209796    1.501027    0.145083
C      -0.190865    0.043739   -0.114280
C       0.587789   -0.575971   -1.254520
C       1.966266   -1.224723   -1.107688
C       2.359486   -1.700851    0.246781
C       1.540979   -2.656609    0.695354
C       0.475783   -3.006449   -0.321174
C       0.746210   -2.058123   -1.501352
C       0.553095   -2.604496   -2.896997
H       1.266296    1.571095    0.424755
H       0.062951    2.119424   -0.747626
H      -0.382778    1.938882    0.954635
H      -0.049286   -0.538179    0.801358
H      -1.262754   -0.005666   -0.349514
H       0.497245   -0.006462   -2.179558
H       2.733239   -0.956633   -1.828006
H       3.199413   -1.287886    0.794742
H       1.593809   -3.125742    1.671636
H       0.552081   -4.056064   -0.638558
H      -0.537514   -2.887876    0.086242
H      -0.499566   -2.846111   -3.089641
H       0.867413   -1.879868   -3.655119
H       1.135091   -3.521231   -3.049700
