18

O       0.031773    1.394653   -0.026978
C       0.002580    0.014238    0.021454
C       0.297945   -0.726051    1.361924
C      -0.628872   -1.838507    0.804855
C      -1.362631   -0.739210   -0.007564
C       0.164001   -2.722756   -0.148058
O       0.939476   -1.953116   -1.095335
C       0.886322   -0.601868   -1.044449
N       1.529318    0.152955   -1.831955
H       0.632652    1.618305   -0.758969
H       1.334430   -0.974477    1.605860
H      -0.164112   -0.186721    2.191245
H      -1.201185   -2.449930    1.504684
H      -2.093911   -0.202004    0.599714
H      -1.797000   -0.999295   -0.976690
H       0.872689   -3.358120    0.395170
H      -0.498236   -3.368699   -0.735625
H       2.086610   -0.374449   -2.502836
