19

C       0.279466    1.498683   -0.103959
C       0.037845   -0.001027    0.013617
O       0.624898   -0.596424   -1.157146
C       0.656252   -1.999796   -1.183448
C       2.052607   -2.549670   -1.045153
O       3.106633   -1.655310   -0.983126
C       1.046197   -2.689248    0.105595
C       1.104070   -1.827234    1.307429
C       0.617367   -0.587915    1.280435
H       1.350473    1.720041   -0.062376
H      -0.117612    1.873823   -1.050486
H      -0.213996    2.026883    0.717244
H      -1.048606   -0.189336   -0.012748
H      -0.067623   -2.445475   -1.862153
H       2.310951   -3.461334   -1.575631
H       2.706011   -0.777139   -1.061672
H       0.662724   -3.694630    0.258872
H       1.546220   -2.236809    2.211091
H       0.624505    0.046403    2.161933
