22

C      -0.116048    1.544399    0.098039
C       0.018497    0.025373   -0.033402
C       0.767570   -0.468585   -1.302648
C       2.226838    0.033622   -1.347149
C       0.743527   -2.011891   -1.306957
O       1.416551   -2.483192   -2.445443
C       1.399882   -3.887767   -2.559106
C       0.050661    0.010089   -2.497784
N      -0.530086    0.409772   -3.413816
H       0.856809    2.033277    0.200773
H      -0.621889    1.973134   -0.772078
H      -0.704573    1.793411    0.985720
H       0.553697   -0.377362    0.835108
H      -0.979572   -0.427864   -0.025819
H       2.742211   -0.267407   -0.428966
H       2.749447   -0.404305   -2.198211
H       2.272357    1.121097   -1.430050
H       1.230884   -2.372051   -0.384370
H      -0.299292   -2.367961   -1.293977
H       1.895615   -4.371423   -1.702830
H       0.372685   -4.276974   -2.629008
H       1.939350   -4.145054   -3.473036
