19

C      -0.563172    1.384546    0.077679
C      -0.099527   -0.049625   -0.017028
C       0.724159   -0.544678   -1.202653
N       1.249707    0.415167   -2.133440
C       2.708412    0.471796   -2.058819
C       3.110308    0.969967   -0.687723
N       4.117383    1.713946   -0.518443
O       2.302596    0.599150    0.354152
C       1.350810   -0.424333    0.158585
H       0.116562    2.049311   -0.456417
H      -1.558492    1.493895   -0.365257
H      -0.620349    1.709746    1.121340
H      -0.789196   -0.786076    0.388241
H       0.533259   -1.553600   -1.570717
H       0.923628    0.253481   -3.076291
H       3.193457   -0.504918   -2.238596
H       3.102813    1.178488   -2.789827
H       4.235722    1.925141    0.474889
H       1.606760   -1.318052    0.719435
