14

C      -0.024486    1.488961    0.075608
C      -0.020777    0.001872   -0.025189
C       0.014143   -0.762198   -1.130698
C      -0.006233   -2.208560   -0.785947
O      -0.075452   -3.151593   -1.536137
C       0.028437   -2.270505    0.743401
O       1.209521   -1.658609    1.294372
C       0.000448   -0.881521    1.201096
H       0.855322    1.837699    0.630762
H      -0.026903    1.963045   -0.908204
H      -0.902443    1.839816    0.632179
H       0.071465   -0.413489   -2.154232
H      -0.376900   -3.122033    1.279893
H      -0.431107   -0.561287    2.144624
