19

C      -0.272883    1.463329   -0.087906
C       0.127880   -0.005203    0.104875
C       0.769813   -0.593234   -1.136036
C       0.920299   -2.091600   -1.355584
C       0.457091   -3.117644   -0.342608
C      -0.065114   -1.309048   -2.180987
O      -1.420686   -1.558769   -1.928682
H       0.595093    2.081772   -0.341793
H      -0.999889    1.574254   -0.900773
H      -0.723010    1.876569    0.820205
H       0.822861   -0.082852    0.950700
H      -0.756229   -0.588848    0.376738
H       1.582425    0.013449   -1.532264
H       1.824644   -2.380304   -1.885639
H      -0.534655   -2.883220    0.046634
H       0.399776   -4.109319   -0.803985
H       1.153732   -3.183397    0.500289
H       0.169190   -1.140463   -3.232218
H      -1.901423   -0.732120   -2.040690
