18

C      -0.033254    1.512501   -0.094294
C       0.048084    0.006579    0.028562
N       1.381226   -0.611846   -0.086779
C       0.754885   -0.646112    1.224957
C       1.339185    0.203770    2.337109
C       0.270672   -1.987639    1.698207
O       0.289502   -2.990550    1.024892
C      -1.107554   -0.724792   -0.591556
O      -2.059603   -0.156589   -1.068554
H       0.932425    1.976095    0.104830
H      -0.341607    1.772236   -1.110144
H      -0.783507    1.924030    0.586719
H       1.306786   -1.547338   -0.495327
H       1.714064    1.153573    1.959429
H       0.586167    0.406613    3.105887
H       2.175757   -0.319846    2.812207
H      -0.077854   -2.010043    2.752381
H      -1.018820   -1.827781   -0.613390
