16

O       0.205137    1.382042    0.409895
C       0.077180    0.099011   -0.186596
C      -1.294246   -0.409545   -0.193145
C      -2.428968   -0.813330   -0.146887
C      -3.778407   -1.323907   -0.108700
C      -4.519882   -1.568305   -1.468244
N      -4.647579   -2.970748   -1.071267
C      -3.959517   -2.874298    0.109032
O      -3.645292   -3.665646    0.950701
H      -0.183930    1.330344    1.289250
H       0.440685    0.211759   -1.214105
H       0.733383   -0.638971    0.301761
H      -4.394289   -0.765622    0.603189
H      -5.471512   -1.040241   -1.578724
H      -3.893832   -1.404333   -2.349064
H      -5.047696   -3.770020   -1.539272
