21

C      -0.025908    1.546401    0.006219
C       0.042014    0.034028   -0.023876
C      -1.118373   -0.622035   -0.753244
C       1.387788   -0.670059   -0.165369
O       2.550136    0.104125    0.032014
C       2.734599    0.132662    1.435926
O       1.448340    0.084741    2.019604
C       0.664549   -0.727311    1.150082
C       0.076046   -1.931456    1.833752
H      -0.001993    1.949290   -1.012420
H      -0.961161    1.875163    0.473248
H       0.800264    1.982802    0.565765
H      -1.230355   -0.182498   -1.750768
H      -0.977258   -1.698641   -0.885416
H      -2.061557   -0.472478   -0.215599
H       1.510609   -1.517225   -0.834636
H       3.339376   -0.733013    1.759438
H       3.225129    1.068819    1.717351
H      -0.608040   -1.621578    2.630980
H      -0.480991   -2.560740    1.136648
H       0.866775   -2.538676    2.286472
