20

O       0.100808    1.404978   -0.101512
C       0.014363   -0.000108   -0.021043
C      -1.392769   -0.440577   -0.434163
C      -1.766821   -1.640401    0.475348
C      -0.842731   -1.562470    1.727946
C       0.340326   -0.665769    1.344711
N       1.630926   -1.273394    0.808197
C       1.292213   -2.170309   -0.309459
C       1.265441   -0.717906   -0.564210
H       0.986528    1.668277    0.172542
H      -2.057838    0.408928   -0.249504
H      -1.463231   -0.684382   -1.497944
H      -2.823417   -1.612267    0.756322
H      -1.624236   -2.586120   -0.055755
H      -1.379531   -1.098020    2.561310
H      -0.523028   -2.550745    2.072872
H       0.613769    0.040800    2.131164
H       2.160179   -2.714128   -0.672812
H       0.385005   -2.762419   -0.289775
H       2.001773   -0.225250   -1.194866
