18

C      -0.007242    1.412059   -0.162091
C       0.128216   -0.074962    0.056711
N       1.464860   -0.654775    0.050914
C       0.707250   -0.691456    1.309300
C       1.224167    0.137432    2.479328
C       2.222759   -0.581416    3.266051
C       3.030500   -1.202006    3.903542
C       0.104919   -2.013516    1.666195
O      -0.045958   -2.908160    0.867352
H       0.842569    1.961127    0.247918
H      -0.047253    1.622383   -1.236146
H      -0.929013    1.794770    0.288185
H      -0.658941   -0.675955   -0.396835
H       1.431508   -1.590972   -0.354388
H       1.654476    1.067938    2.100250
H       0.382051    0.419884    3.125718
H       3.752655   -1.740418    4.465865
H      -0.207018   -2.126936    2.725332
