19

O       0.019813    0.022522    0.235032
C       0.012251    1.215265    0.078604
C      -1.266743    2.106994    0.004355
C      -0.829889    3.592009   -0.211440
C       0.581529    3.434615   -0.805740
C       1.988552    3.857776   -0.253011
C       1.635780    3.122855    1.064469
C       1.147523    2.184553   -0.104378
C       2.515589    2.472671   -0.787384
H      -1.849046    1.737803   -0.848180
H      -1.886873    1.947321    0.891032
H      -1.508785    4.118086   -0.886833
H      -0.840405    4.139401    0.733634
H       0.544987    3.354615   -1.898269
H       2.492496    4.820546   -0.357162
H       2.470528    2.733216    1.651637
H       0.881193    3.570021    1.710856
H       2.547388    2.343729   -1.872117
H       3.411108    2.076272   -0.304333
