17

O      -0.150546   -0.099746    0.001538
C      -0.078519    1.109494    0.005676
C       1.237699    1.868920   -0.002491
C       2.462472    0.956507   -0.017454
C       3.778186    1.759546   -0.024973
C       4.960958    0.907520   -0.039347
C       5.921257    0.185009   -0.051073
C      -1.272271    1.942111    0.019142
C      -2.247590    2.647520    0.030270
H       1.226103    2.543050   -0.870836
H       1.241436    2.534901    0.872211
H       2.440903    0.294791    0.853197
H       2.425837    0.303184   -0.893929
H       3.798814    2.425228   -0.898466
H       3.813985    2.416757    0.854425
H       6.774840   -0.446228   -0.061262
H      -3.120904    3.253729    0.040419
