18

C      -0.019046    1.341796    0.013110
O       0.042195   -0.072310   -0.072587
C       0.679752   -0.546766   -1.185148
C       2.173904   -0.344393   -1.617277
C       1.527537   -1.307023   -2.662446
C       0.854644   -2.056652   -1.466785
C       0.284855   -0.362739   -2.691932
C       2.178891   -1.899209   -3.797279
N       2.703753   -2.374579   -4.711728
H       0.984336    1.787246    0.048797
H      -0.568105    1.773570   -0.834587
H      -0.547412    1.579323    0.937959
H       2.464612    0.638243   -1.994396
H       2.937261   -0.782082   -0.970791
H       1.527213   -2.606360   -0.805520
H      -0.049255   -2.621695   -1.702344
H      -0.654394   -0.816952   -3.013996
H       0.446062    0.618634   -3.142743
