15

C       0.025653   -1.193273   -0.035472
C       0.005527    0.006876    0.020986
C       0.026253    1.446170    0.059899
C      -0.400591    2.262212   -1.226833
C       0.776889    3.194024   -0.953403
C       1.388677    2.236650   -0.003946
N       0.944296    3.530937    0.518166
C      -0.215651    3.222237    1.302028
N      -0.734868    2.069532    1.169976
H       0.030897   -2.254550   -0.074409
H      -0.208118    1.680342   -2.129968
H      -1.421200    2.652122   -1.226205
H       1.230713    3.897042   -1.639511
H       2.401025    1.883689    0.152618
H      -0.601310    3.984314    1.971046
