22

C      -0.045127    1.583788    0.045246
C      -0.001762    0.056424   -0.003044
O       0.821123   -0.468712    1.037838
C      -1.405092   -0.568575    0.017174
C      -1.409537   -2.075173   -0.117376
C      -0.787726   -3.159250    0.797030
N      -1.442310   -4.017199   -0.300135
C      -2.620314   -3.038040   -0.164349
C      -0.865329   -2.966796   -1.264558
H       0.969425    1.991133    0.052725
H      -0.579812    1.994365   -0.817394
H      -0.560000    1.929406    0.950674
H       0.505656   -0.254780   -0.924869
H       0.435832   -0.198900    1.879229
H      -1.908585   -0.283951    0.953780
H      -2.001924   -0.132237   -0.795088
H       0.300211   -3.238128    0.829974
H      -1.230270   -3.310960    1.786785
H      -3.202035   -3.180384    0.751801
H      -3.269399   -3.010456   -1.045276
H      -1.378324   -2.934541   -2.230905
H       0.218130   -3.043876   -1.391773
