17

C      -0.097678    1.669843    0.248083
C      -0.073429    0.163020    0.095477
C      -1.385838   -0.454937   -0.383123
C      -1.737504   -0.046949   -1.745581
N      -2.000975    0.282769   -2.821310
C       1.212475   -0.505586   -0.355748
C       0.730587   -0.659518    1.068053
O       1.371966    0.024404    2.102005
H       0.843198    2.030605    0.665288
H      -0.265555    2.155509   -0.718561
H      -0.900732    1.980002    0.926714
H      -1.328728   -1.548938   -0.360619
H      -2.206180   -0.167547    0.286348
H       1.159512   -1.360349   -1.022150
H       2.066917    0.143061   -0.516456
H       0.320120   -1.629030    1.354882
H       2.239830   -0.372548    2.229413
