20

C       0.135000    1.446195    0.409483
C       0.050700   -0.047463    0.030151
C       0.959595   -0.897554    0.926440
C      -1.397514   -0.525197    0.166923
O      -1.791426   -1.081571    1.168887
N      -2.311195   -0.286760   -0.875811
C      -3.688008   -0.743752   -0.655597
C      -2.012073    0.347555   -2.073540
O      -2.811944    0.548084   -2.955949
H       1.170381    1.792307    0.341576
H      -0.475587    2.077898   -0.242361
H      -0.206377    1.594418    1.438720
H       0.385024   -0.166507   -1.005307
H       0.652331   -0.820738    1.971290
H       0.919942   -1.953557    0.646013
H       1.995003   -0.556121    0.835829
H      -4.104246   -0.259787    0.229884
H      -4.263972   -0.484296   -1.541055
H      -3.700722   -1.822855   -0.491356
H      -0.961894    0.660230   -2.151164
