21

C       0.308215    1.056143   -0.991722
C      -0.306542    0.831554    0.392112
N      -1.566694    0.107665    0.345257
C      -1.671379   -1.214137    0.684220
O      -0.729017   -1.867081    1.096679
C      -3.067328   -1.763387    0.531777
N      -3.187239   -3.203475    0.246590
C      -3.679711   -2.705388    1.529454
C      -2.977752   -3.179871    2.777582
H       1.246682    1.613368   -0.906848
H       0.517981    0.099643   -1.478611
H      -0.364143    1.629678   -1.639501
H       0.361728    0.231265    1.012807
H      -0.465466    1.791693    0.897839
H      -2.367488    0.570488   -0.052704
H      -3.767414   -1.096702    0.028825
H      -3.951260   -3.360025   -0.405150
H      -4.760168   -2.593354    1.629161
H      -1.902353   -3.231113    2.608640
H      -3.176597   -2.498877    3.612368
H      -3.345729   -4.172820    3.057729
