16

O       0.014036    1.393938    0.345953
C      -0.235073    0.064981    0.691048
C      -1.201195   -0.587502   -0.276387
O      -1.608277    0.034283   -1.239788
C      -1.648270   -2.003911   -0.032918
C      -3.139165   -2.212455   -0.210724
N      -2.217928   -2.703284   -1.212315
C      -0.913442   -2.795032    0.916310
C      -0.300489   -3.435182    1.728123
H      -0.472387    1.545562   -0.478955
H       0.688148   -0.537777    0.698152
H      -0.651723   -0.016825    1.707743
H      -3.610230   -2.971249    0.406099
H      -3.729113   -1.325083   -0.422209
H      -2.185120   -2.033552   -1.982835
H       0.243779   -4.009432    2.436972
