16

C       0.033932    1.414962    0.077018
C      -0.008092   -0.037053    0.022502
C      -0.043062   -1.241071   -0.015839
C      -0.065958   -2.654517   -0.069227
C      -0.383943   -3.540285   -1.229859
C      -1.187946   -3.687795    0.058501
C      -0.303677   -4.304644    1.087825
N      -0.421873   -5.241087    1.910640
O       0.754074   -3.420601    0.875407
H       0.739268    1.751283    0.844657
H       0.352504    1.843126   -0.879541
H      -0.948397    1.832593    0.323553
H      -0.927087   -3.068985   -2.042330
H       0.330006   -4.304552   -1.520002
H      -2.258696   -3.560595    0.111145
H       0.418379   -5.337481    2.483306
