15

C       0.059110    1.458109   -0.014746
O       0.035481    0.034152    0.016014
C       0.595206   -0.590764   -1.035554
C       0.683183   -1.938798   -1.210393
C       0.260232   -3.122561   -0.427430
O       1.327952   -2.123030   -2.418055
C       1.577629   -0.885036   -2.875716
N       1.168802    0.072497   -2.103500
H       1.085345    1.838172   -0.045670
H      -0.482370    1.846077   -0.883564
H      -0.430756    1.781772    0.904842
H      -0.449715   -3.748965   -0.980275
H       1.110641   -3.754989   -0.146549
H      -0.227911   -2.781780    0.488598
H       2.084793   -0.803349   -3.823933
