15

O      -0.000723    1.381352    0.172786
C       0.089110    0.012492    0.107231
C       0.772498   -1.003459    1.023259
N       0.062441   -1.916303    0.026502
C      -1.132078   -0.931729   -0.027624
C      -1.108941   -0.965645   -1.570106
C      -1.646878    0.153800   -2.321882
N      -2.080626    1.025338   -2.945042
C       0.365711   -0.931262   -1.120458
H       0.867960    1.769464    0.018411
H       1.862834   -1.091236    0.987779
H       0.402288   -1.106269    2.047378
H      -1.981422   -1.041221    0.646154
H      -1.424932   -1.919105   -2.002133
H       1.266762   -1.033960   -1.725739
