17

C      -0.223769    1.573498    0.092100
C       0.032213    0.074676   -0.033186
C       0.831084   -0.483142   -1.235763
C       2.232145    0.142372   -1.308814
O       2.868283   -0.425049   -0.148576
C       1.917698   -1.368853    0.360966
O       1.184721   -1.804456   -0.757337
C       0.884022   -0.510970    1.114455
O       0.780408   -0.304347    2.291899
H       0.704442    2.151700    0.076691
H      -0.869814    1.938819   -0.711908
H      -0.716509    1.775112    1.047114
H      -0.924916   -0.461625   -0.018343
H       0.292446   -0.561369   -2.178444
H       2.765198   -0.170015   -2.213016
H       2.239250    1.233165   -1.241081
H       2.413547   -2.180582    0.888443
