20

O       0.087221    1.383136   -0.127384
C       0.076850   -0.017034    0.032208
C      -1.355953   -0.551563    0.081426
O      -2.070538   -0.076182   -1.068920
C      -1.424197   -2.071822    0.212046
C      -2.853321   -2.580604    0.334151
O      -2.801982   -4.007610    0.387654
C      -3.987158   -4.642903    0.454233
N      -4.026187   -5.902900    0.513605
H      -0.607399    1.573854   -0.771231
H       0.619206   -0.524189   -0.788001
H       0.604357   -0.248845    0.963890
H      -1.868032   -0.075742    0.926825
H      -1.710326   -0.527246   -1.842826
H      -0.951774   -2.543500   -0.659985
H      -0.850719   -2.393320    1.088841
H      -3.323839   -2.186616    1.245700
H      -3.450059   -2.250736   -0.524599
H      -4.851270   -3.963433    0.447963
H      -4.992852   -6.218275    0.555956
