14

C      -0.184499    1.376920   -0.180355
O       0.250119    0.049989    0.080686
C       0.765512   -0.588707   -1.046275
C       1.108175   -2.070544   -0.811754
O       0.168206   -2.462242   -1.863556
C      -0.231792   -1.157054   -2.057981
N      -1.120172   -0.668875   -2.795320
H       0.648705    2.003821   -0.532750
H      -0.983668    1.396272   -0.930063
H      -0.556531    1.776594    0.765146
H       1.566642   -0.000591   -1.518245
H       2.123003   -2.394917   -1.048834
H       0.788459   -2.442568    0.163569
H      -1.619778   -1.393827   -3.314321
