20

C       0.008502    1.552086    0.001075
C      -0.017752    0.011816    0.042901
C       0.779179   -0.512246    1.253330
C      -1.421000   -0.524501    0.022465
C      -1.973976   -1.301515   -0.917365
N      -3.310033   -1.617926   -0.617087
C      -3.711679   -1.044733    0.574537
O      -4.803942   -1.143133    1.083780
C      -2.477049   -0.276330    1.080915
H       1.038736    1.921020   -0.036653
H      -0.523829    1.932873   -0.875592
H      -0.462268    1.980008    0.893069
H       0.477619   -0.354832   -0.866373
H       0.339291   -0.167512    2.195694
H       0.797473   -1.605987    1.271028
H       1.812931   -0.152720    1.221499
H      -1.528068   -1.685695   -1.824594
H      -3.921334   -2.186601   -1.178346
H      -2.203217   -0.649241    2.074439
H      -2.737205    0.780894    1.206324
