25

C       0.499284    2.011640   -0.230407
C       0.609968    0.495860    0.016266
C       1.597705    0.214892    1.155219
C      -0.772849   -0.068502    0.366252
O       0.935879   -0.176098   -1.223107
C       2.251044   -0.408040   -1.650734
C       2.859862   -1.707224   -1.155076
C       2.492031   -0.040834   -3.090538
C       3.166956    0.748563   -1.989016
H       1.479122    2.476790   -0.362059
H      -0.099639    2.200685   -1.125537
H       0.014037    2.503273    0.619345
H       1.290485    0.772828    2.045509
H       1.616183   -0.846584    1.416046
H       2.611349    0.532663    0.897819
H      -1.475830    0.122667   -0.449421
H      -0.713518   -1.149926    0.516794
H      -1.164364    0.392192    1.278444
H       2.164350   -2.532859   -1.337665
H       3.791519   -1.922037   -1.687274
H       3.086133   -1.682978   -0.086180
H       3.090040   -0.706996   -3.702803
H       1.669164    0.439994   -3.606246
H       2.815583    1.757795   -1.823847
H       4.231978    0.613813   -1.829136
