19

C       0.112848    1.509279   -0.081282
C      -0.047187   -0.008547    0.069027
C       0.640391   -0.549757    1.295033
O       2.100045   -0.344260    1.350496
C       2.048514   -1.337273    2.420278
C       1.180888   -0.633905    3.472148
C       0.223654   -0.099804    2.713670
C       0.962087   -2.059913    1.541097
O      -0.038238   -2.862468    2.091095
H       1.171128    1.780113   -0.124749
H      -0.372193    1.864194   -0.995231
H      -0.332012    2.043049    0.764735
H      -1.108756   -0.279530    0.126820
H       0.359999   -0.514494   -0.813924
H       3.013596   -1.765673    2.688307
H       1.322077   -0.628132    4.542598
H      -0.649835    0.477574    2.978031
H       1.419790   -2.509155    0.651583
H       0.202790   -3.784005    1.961170
