15

O      -0.057981   -0.032444    0.130771
C      -0.013536    1.172172    0.047254
C       1.250228    1.943389    0.018302
C       1.226710    3.279448   -0.097802
C       2.465020    4.096761   -0.022455
O       2.448729    5.287370    0.152048
O       3.642852    3.431878   -0.095227
C       3.639534    2.066927   -0.555134
C       2.566521    1.227244    0.124147
H      -0.935562    1.788326   -0.019030
H       0.302571    3.843737   -0.168267
H       3.488685    2.066338   -1.642072
H       4.643756    1.694320   -0.346907
H       2.813567    1.056933    1.179965
H       2.497075    0.240051   -0.341905
