14

O      -0.079769    1.398530    0.062802
C       0.048282    0.034746    0.007614
C      -1.031232   -1.009948    0.167267
C      -0.294129   -0.877867   -1.150179
C       0.723160   -2.033067   -0.861880
N       0.349698   -3.122555   -0.302742
C      -0.026550   -2.052291    0.751576
C       1.155691   -0.855558    0.629084
O       1.941882   -1.385876   -0.444716
H       0.561771    1.795082   -0.538377
H      -2.095990   -0.919039    0.326962
H      -0.701818   -0.590714   -2.105228
H      -0.140966   -2.578418    1.692461
H       1.760468   -0.560411    1.481475
