15

O      -0.785457    0.336273    0.334527
C       0.151632   -0.469074   -0.317098
C       1.043383    0.373542   -1.221997
O       0.845608    1.557539   -1.337050
C       1.057707   -1.269231    0.640254
O       1.869611   -2.062130    0.209364
N       0.856626   -0.973475    1.958865
C       1.558147   -1.565523    3.000369
N       1.300913   -1.246588    4.200731
H      -0.628281    1.237621    0.002275
H      -0.334747   -1.223760   -0.956257
H       1.858074   -0.160692   -1.739737
H       0.130912   -0.302091    2.179374
H       2.299245   -2.283468    2.642553
H       1.899110   -1.766191    4.840690
