19

C       0.032020    1.420902    0.086590
O       0.006668    0.013853    0.028420
C       0.660858   -0.498351   -1.111656
C       0.548393   -2.022976   -1.076451
C      -0.839748   -2.580008   -1.255036
C      -0.915453   -3.470537   -2.245757
C       0.406374   -3.686919   -2.932749
C       1.331659   -2.682629   -2.228852
O       2.467208   -2.427294   -2.534999
H       1.061882    1.809190    0.122250
H      -0.475082    1.874629   -0.779602
H      -0.490539    1.719865    0.998413
H       0.199582   -0.102541   -2.032613
H       1.724282   -0.213237   -1.123740
H       0.992237   -2.349136   -0.124068
H      -1.663170   -2.267106   -0.625016
H      -1.816153   -3.996740   -2.540288
H       0.802049   -4.704677   -2.811630
H       0.391788   -3.495204   -4.012874
