21

C       0.072188    1.490361    0.215812
C      -0.054538   -0.006896   -0.103249
C      -1.478135   -0.487999   -0.072506
C      -2.179270   -0.922144    1.230008
C      -3.690867   -0.846697    1.014994
C      -3.400679   -1.329037   -0.430284
C      -2.017938   -1.895199    0.084225
C      -2.585873   -0.169915   -1.074722
O      -3.128624    1.125882   -1.184770
H       1.111523    1.824608    0.141065
H      -0.529497    2.084598   -0.478256
H      -0.278509    1.705569    1.230949
H       0.370623   -0.205175   -1.096185
H       0.545232   -0.591247    0.606645
H      -1.635931   -0.912483    2.166969
H      -4.211439   -1.614423    1.593776
H      -4.215148    0.110079    1.145712
H      -4.151623   -1.866856   -1.004782
H      -1.530308   -2.855355    0.004811
H      -2.270756   -0.445835   -2.085967
H      -3.331193    1.441177   -0.298159
