21

C       0.117125    1.523488    0.088969
C       0.053747    0.006439    0.012867
C       0.672404   -0.562673   -1.271502
C       0.962897   -2.057276   -1.174583
C       2.221653   -2.493587   -0.451069
O       3.123507   -1.560491    0.061256
C       0.883900   -2.739966    0.190957
C       0.471095   -1.890931    1.375697
O       0.742976   -0.506674    1.162670
H       1.157392    1.863590    0.070230
H      -0.404677    1.969938   -0.762977
H      -0.346138    1.884175    1.011017
H      -0.996448   -0.322248    0.080949
H      -0.006072   -0.366380   -2.107454
H       1.605225   -0.023340   -1.483363
H       0.667389   -2.649770   -2.034532
H       2.758769   -3.346678   -0.853020
H       2.616049   -0.920635    0.582179
H       0.515368   -3.761459    0.225461
H      -0.601859   -2.025326    1.586175
H       1.028688   -2.167540    2.277161
