24

C       0.768726    1.515603   -0.366020
C       0.160934    0.175987    0.075830
C       0.234348   -0.936172   -1.015445
N       1.215159   -1.963488   -0.619368
C       2.552678   -1.418747   -0.339043
C       1.599611   -1.667430    0.771078
C       0.781659   -0.510829    1.348659
C       1.635526    0.410869    2.231464
C      -0.355813   -1.112693    2.199323
H       1.830896    1.449151   -0.617528
H       0.248003    1.879119   -1.258484
H       0.660706    2.281479    0.408253
H      -0.893906    0.379425    0.289579
H      -0.733102   -1.439650   -1.115084
H       0.491284   -0.533601   -2.001383
H       3.367521   -2.116110   -0.513817
H       2.775010   -0.395633   -0.625614
H       1.757754   -2.527370    1.419193
H       2.473729    0.846713    1.681914
H       1.040787    1.230566    2.649272
H       2.051213   -0.151889    3.074627
H       0.043882   -1.696118    3.036236
H      -0.991610   -0.323835    2.615651
H      -0.989351   -1.777489    1.602880
