17

O      -0.043075    1.419958   -0.132693
C       0.004405    0.023307   -0.023662
C       0.469723   -0.621874   -1.340138
C      -0.455163   -0.237216   -2.490651
O      -0.038772   -0.892373   -3.692901
C       0.455388   -0.134824   -4.691921
O       0.848980   -0.598365   -5.718529
C       0.914298   -0.386231    1.117954
O       1.482567    0.434377    1.795730
H       0.519163    1.758817    0.582708
H      -0.998766   -0.376030    0.220791
H       1.488956   -0.288043   -1.565673
H       0.488938   -1.713014   -1.238169
H      -1.481526   -0.562219   -2.290486
H      -0.459530    0.849875   -2.623722
H       0.447362    0.946822   -4.452372
H       1.028854   -1.474847    1.293791
