14

O      -0.070938    1.439868   -0.148726
C       0.017263    0.089171   -0.085243
C       0.413942   -0.879971   -0.971191
C       0.260977   -2.141895   -0.302746
C      -0.210428   -1.871461    0.949895
N      -0.354592   -0.506257    1.090206
O      -0.563714   -2.675033    2.001147
C       0.408931   -3.487226    2.518806
O       0.176684   -4.278570    3.375980
H       0.189955    1.720279   -1.031238
H       0.765534   -0.720941   -1.978297
H       0.457313   -3.120609   -0.710065
H      -0.716834   -0.031380    1.899341
H       1.385348   -3.309240    2.035090
