16

C      -0.111033    1.550888    0.017086
C       0.088396    0.047362    0.025582
N       1.198951   -0.475197   -0.852201
C       1.727777   -1.265415    0.267218
C       2.224502   -0.344566    1.321845
C       0.729208   -0.632532    1.258275
C       0.005187   -1.192082    2.345363
N      -0.600724   -1.649939    3.220484
H       0.815634    2.076831    0.261291
H      -0.435740    1.885246   -0.973402
H      -0.879105    1.837828    0.742834
H      -0.854040   -0.463749   -0.197904
H       0.825243   -1.069422   -1.584219
H       2.030191   -2.300673    0.169831
H       2.720126   -0.809188    2.167049
H       2.594011    0.636781    1.041493
