18

C      -0.070323    1.427282    0.033403
N      -0.077171   -0.013376    0.145933
C      -1.420823   -0.631419    0.157341
C      -1.129216   -1.852624    0.954012
C       0.074519   -1.843283    1.562801
C       0.773081   -0.560829    1.233080
C       0.149881   -3.063482    2.307571
C      -1.033134   -3.699937    2.069784
O      -1.838963   -2.964369    1.235434
H       0.959223    1.785457   -0.071828
H      -0.620676    1.735574   -0.861926
H      -0.521458    1.943966    0.903409
H      -2.182515    0.006997    0.645878
H      -1.770189   -0.823866   -0.866197
H       1.804178   -0.682607    0.875668
H       0.814251    0.114188    2.108594
H       0.951709   -3.433977    2.927170
H      -1.443135   -4.642383    2.392459
