15

N      -0.075487    1.339202   -0.080069
C      -0.013735    0.077603    0.044900
C      -1.287060   -0.735547    0.111665
N      -1.117549   -1.941133    0.903853
C      -0.012434   -2.745245    0.751449
N      -0.026107   -3.987481    1.029370
C       1.263243   -2.038748    0.320793
O       2.321794   -2.620180    0.243327
N       1.155681   -0.685370    0.058420
H       0.848973    1.764453   -0.174253
H      -2.058595   -0.105376    0.554514
H      -1.593698   -0.955251   -0.925008
H      -1.959299   -2.459538    1.114981
H       0.921540   -4.352840    0.919230
H       2.036736   -0.219908   -0.124467
