17

C       0.348279    1.589597    0.023240
C      -0.052568    0.100542    0.002070
C       0.375280   -0.562253   -1.280309
C       0.948544   -1.767648   -1.374913
C       1.210848   -2.618382   -0.198961
O       1.475854   -3.801437   -0.283325
C       1.103562   -1.944614    1.142444
O       1.893577   -0.753271    1.302333
C       0.481715   -0.607868    1.232076
H       1.437168    1.687448    0.015940
H      -0.054236    2.115173   -0.847628
H      -0.034498    2.081477    0.922464
H      -1.151772    0.049304    0.047237
H       0.174654    0.004068   -2.188045
H       1.197003   -2.205307   -2.336447
H       1.104863   -2.620291    1.994991
H       0.014616   -0.326357    2.176661
