17

C      -0.085532    1.461036    0.055813
C      -0.009371   -0.026848   -0.033832
C       0.011109   -0.808186   -1.160875
N       0.149400   -2.111725   -0.689439
C       0.004045   -3.484764   -1.117704
C       0.352813   -4.196904    0.223239
O       0.150558   -3.223372    1.270808
C       0.145166   -2.016486    0.662111
N       0.070736   -0.807339    1.126155
H       0.806133    1.875123    0.539760
H      -0.175067    1.909849   -0.937366
H      -0.948279    1.773727    0.654121
H      -0.003829   -0.566953   -2.209958
H      -1.018482   -3.698346   -1.453914
H       0.699303   -3.760283   -1.915223
H      -0.282700   -5.058451    0.431401
H       1.402831   -4.508639    0.235837
