17

O      -0.031656    0.004614   -0.063955
C       0.008802    1.200483   -0.070460
O      -1.141309    1.976051   -0.105666
C      -0.771916    3.343700   -0.158583
C      -1.200683    4.282916    0.976255
C      -0.154226    5.425921    0.848876
C       1.174231    4.750603    0.355275
C       0.723830    3.371499   -0.017986
C       1.176136    2.119309    0.013645
H      -1.103215    3.750534   -1.125327
H      -2.230553    4.636089    0.892382
H      -1.093221    3.757464    1.931046
H      -0.493514    6.159203    0.110908
H      -0.017850    5.962957    1.789510
H       1.606733    5.292789   -0.492369
H       1.942933    4.717280    1.132199
H       2.177448    1.746582    0.172741
