16

O      -0.129487    1.334599   -0.156873
N       0.053491   -0.052144   -0.066795
C      -1.054778   -0.653899    0.086238
C      -2.458128   -0.111334    0.180904
C      -3.301147   -1.397096    0.111608
O      -2.453519   -2.439157    0.608016
C      -1.138931   -2.170438    0.188546
C      -0.806106   -2.776644   -1.181483
O      -1.614200   -3.297099   -1.900609
H       0.773151    1.656557   -0.257531
H      -2.582811    0.410648    1.136247
H      -2.671276    0.606633   -0.614636
H      -4.191436   -1.373047    0.742825
H      -3.601118   -1.617125   -0.919947
H      -0.432900   -2.574649    0.923844
H       0.263862   -2.662382   -1.465517
