16

N       0.254917    1.259915   -0.441516
C       0.073890   -0.079329   -0.146462
N      -1.107412   -0.651836   -0.124032
O      -0.860563   -2.004999    0.142945
C       0.465251   -2.189942    0.273487
C       1.129929   -1.017946    0.101469
N       2.486293   -0.677866    0.211566
C       3.484168   -1.671430   -0.170816
C       3.250827   -0.479923   -1.030622
H       1.021242    1.675890    0.070777
H      -0.594838    1.802074   -0.358235
H       0.786152   -3.193702    0.502507
H       4.357434   -1.725156    0.471636
H       3.126623   -2.627748   -0.545501
H       2.728099   -0.635435   -1.970288
H       3.948020    0.351655   -1.014877
