19

C       0.057330    1.470128    0.093462
C      -0.045561   -0.007009   -0.038279
C      -1.082725   -0.883814    0.016820
C      -0.535708   -2.202357   -0.183373
C       0.800243   -2.008843   -0.349132
O       1.117212   -0.686130   -0.259751
C      -1.285398   -3.479114   -0.209023
C      -0.601637   -4.797838    0.053836
C      -1.563575   -4.242678    1.071633
H       0.474615    1.926932   -0.811286
H      -0.933123    1.896767    0.266190
H       0.704404    1.755723    0.930797
H      -2.119521   -0.634656    0.185223
H       1.624433   -2.675615   -0.540395
H      -2.092117   -3.508521   -0.937607
H      -0.907282   -5.655887   -0.534122
H       0.453364   -4.784186    0.302977
H      -1.148384   -3.841126    1.989160
H      -2.532040   -4.717731    1.183380
