19

O      -0.091095    1.432488   -0.005866
C      -0.016012    0.012291   -0.005670
C       0.706273   -0.588259    1.227125
C       0.040833   -1.962363    1.476192
C      -1.374018   -1.787193    0.952241
O      -2.070369   -2.942649    0.616115
C      -2.136817   -0.545586    1.379671
C      -1.402797   -0.586950    0.050221
O      -2.138154   -0.708325   -1.130483
H       0.797109    1.780277   -0.133298
H       0.453635   -0.342976   -0.936401
H       1.786497   -0.668889    1.077854
H       0.545041    0.086320    2.073905
H       0.523883   -2.748711    0.885859
H       0.083351   -2.266539    2.526845
H      -2.511063   -2.762223   -0.225266
H      -3.215283   -0.636238    1.308060
H      -1.780120    0.095750    2.178423
H      -2.585486    0.128066   -1.297958
