21

C      -0.385387    1.539727    0.057771
O       0.965035    1.069035    0.069030
C      -0.100643    0.098528    0.005617
C      -0.228621   -0.733575    1.273201
C       0.980774   -1.666214    1.469505
C       0.909784   -2.977805    0.666965
O       0.251798   -2.887444   -0.585123
C       0.690377   -1.852371   -1.448940
C      -0.209717   -0.617814   -1.326998
H      -0.731482    1.988678    0.988403
H      -0.688943    2.067306   -0.846241
H      -0.291000   -0.048698    2.124288
H      -1.161278   -1.309247    1.247166
H       1.885205   -1.102314    1.217580
H       1.077341   -1.932978    2.528057
H       1.926674   -3.383238    0.537867
H       0.330582   -3.723630    1.221882
H       1.741498   -1.590158   -1.262661
H       0.626906   -2.245368   -2.470066
H      -1.245624   -0.945969   -1.478754
H       0.035011    0.091154   -2.125770
