24

C       0.054480    1.623906   -0.002514
C       0.081495    0.092951   -0.035124
C       0.590391   -0.518140    1.278383
C       0.737593   -2.045132    1.269308
C      -0.607343   -2.755501    1.088200
C       1.841583   -2.675735    0.361097
N       2.474583   -3.407371    1.517147
C       2.954972   -2.351794    2.425692
C       1.515044   -2.669859    2.439767
H       1.054836    2.034753    0.173982
H      -0.313315    2.037179   -0.946904
H      -0.597567    1.990932    0.797971
H      -0.925239   -0.279661   -0.256927
H       0.719505   -0.242522   -0.863716
H       1.559925   -0.064328    1.518515
H      -0.086023   -0.232999    2.097080
H      -1.055380   -2.528811    0.115883
H      -0.483506   -3.841127    1.153238
H      -1.318277   -2.450677    1.865276
H       1.460264   -3.384798   -0.377006
H       2.528114   -1.980591   -0.135920
H       3.556751   -2.738767    3.242910
H       3.318185   -1.416541    2.004754
H       1.047109   -3.173178    3.282221
