18

C       0.110628    1.470885    0.060367
N      -0.086703    0.027962    0.078105
C       0.549871   -0.745141    1.013016
C       0.694936   -2.103697    1.126648
C       0.190834   -3.188510    0.229346
C       1.394253   -2.226901    2.362575
N       1.723088   -3.420627    2.992897
N       1.658423   -1.072407    2.937171
O       1.098663   -0.107758    2.054081
H       1.143285    1.765924   -0.172340
H      -0.558524    1.903487   -0.686410
H      -0.146851    1.885473    1.036946
H      -0.156788   -0.408291   -0.827773
H       0.937530   -3.536345   -0.497755
H      -0.121669   -4.060158    0.814906
H      -0.685735   -2.858090   -0.339043
H       2.093435   -4.121745    2.365878
H       2.341982   -3.275920    3.780680
