18

O      -0.047096    1.346753   -0.057059
N       0.036473   -0.057386   -0.065616
C      -1.115949   -0.611172   -0.009908
C      -2.435972    0.107304    0.132254
C      -3.368386   -0.714001    1.030074
O      -3.597433   -2.004800    0.484255
C      -2.444035   -2.783495    0.341804
C      -1.889040   -2.904779   -1.043161
C      -1.137011   -2.093881    0.011273
H       0.881834    1.599371   -0.060775
H      -2.266724    1.104100    0.544619
H      -2.910115    0.235408   -0.849145
H      -2.947127   -0.788651    2.044350
H      -4.351938   -0.242732    1.104412
H      -2.418645   -3.644370    1.006742
H      -1.438370   -3.838910   -1.358581
H      -2.421901   -2.363740   -1.816444
H      -0.223246   -2.543321    0.382572
