16

F      -0.657085    0.128737    0.908916
C      -0.173754    1.288686    0.438281
F       1.160203    1.231909    0.514632
F      -0.514792    1.366990   -0.858703
C      -0.732308    2.502207    1.184306
O      -0.196955    2.689327    2.464533
C      -0.655417    1.799082    3.449640
C       0.168738    0.590619    3.795193
C       0.127007    1.790569    4.721321
H      -0.467610    3.386167    0.598018
H      -1.827810    2.403251    1.195563
H      -1.741675    1.724250    3.497960
H      -0.342750   -0.320446    4.084825
H       1.074258    0.444055    3.218798
H       1.005819    2.424647    4.748769
H      -0.412190    1.717621    5.658811
