19

C      -0.134378    1.359300   -0.125694
N      -0.195046   -0.093581   -0.214399
C       0.578141   -0.692419   -0.992312
O       1.562070   -0.205268   -1.849936
C       1.990567   -1.551113   -2.162270
C       2.574492   -1.914035   -3.477015
C       3.428326   -1.929411   -2.211449
C       0.859258   -2.157799   -1.329589
N       1.231635   -3.112511   -0.309305
H       0.719015    1.802766   -0.652079
H      -1.056605    1.785127   -0.537485
H      -0.091865    1.650618    0.929068
H       2.287706   -2.859765   -3.925099
H       2.748929   -1.108505   -4.181942
H       4.160514   -1.137808   -2.096118
H       3.705855   -2.887872   -1.785488
H       0.065817   -2.590497   -1.946738
H       1.831350   -2.669091    0.380795
H       0.403397   -3.425075    0.187773
