19

C      -0.026593    1.589853    0.015389
C       1.518953    1.678214    0.035226
C       1.745920    1.040897    1.414937
C       1.093054   -0.353170    1.107544
C       2.241150   -1.132074    0.512862
C       2.775955   -0.537883   -0.558533
C       1.904686    0.584466   -1.073639
O       0.634110   -0.095064   -1.308527
C       0.023103    0.052932   -0.036653
H      -0.480418    2.030465    0.905846
H      -0.507613    1.982274   -0.881399
H       1.976827    2.652322   -0.135355
H       2.788675    0.935795    1.714397
H       1.216835    1.603320    2.189809
H       0.625066   -0.836775    1.964964
H       2.620628   -2.036580    0.974781
H       3.643827   -0.888690   -1.103807
H       2.240201    1.027473   -2.011583
H      -0.906048   -0.515423   -0.014209
