20

C       0.024228    1.572100    0.095262
C       0.006184    0.038662   -0.003354
C       0.617123   -0.583498    1.260145
O      -1.355978   -0.421973   -0.011117
C       0.711348   -0.455733   -1.246808
C       1.623134    0.214888   -2.034888
N       2.009624   -0.624913   -3.048886
C       1.355225   -1.824747   -2.932888
C       0.545597   -1.752393   -1.825931
H       1.043855    1.958632    0.194711
H      -0.425157    2.024656   -0.794808
H      -0.549934    1.888133    0.970333
H       0.049128   -0.273681    2.142937
H       0.588452   -1.673770    1.194650
H       1.657661   -0.269835    1.379034
H      -1.720837   -0.208400   -0.876722
H       2.029525    1.210076   -1.958199
H       2.660865   -0.388097   -3.776226
H       1.517631   -2.617988   -3.644891
H      -0.109291   -2.527808   -1.460488
