20

C       0.857783    1.156312    0.201106
N      -0.000461   -0.017657    0.043631
C      -0.769338   -0.373152    1.119315
O      -0.781246    0.216918    2.180955
C       0.048954   -0.734211   -1.241941
C       1.478865   -1.176014   -1.582853
C      -0.895596   -1.951102   -1.294798
C      -0.490407    0.241716   -2.305341
O       0.020977    0.458065   -3.370118
H       1.882130    0.878709    0.472804
H       0.889015    1.733526   -0.727435
H       0.444072    1.768328    1.001764
H      -1.395416   -1.258045    0.937059
H       1.836430   -1.895584   -0.841101
H       1.497839   -1.641363   -2.570317
H       2.167486   -0.329570   -1.610889
H      -1.944040   -1.677283   -1.146145
H      -0.804050   -2.411532   -2.282027
H      -0.620566   -2.700303   -0.547642
H      -1.438305    0.738362   -1.992351
