16

C      -0.048081    1.558239   -0.034255
C       1.197757    2.052066   -0.044026
C       2.168956    0.900270   -0.017347
C       2.103472    0.047140    1.293620
C       0.683905   -0.515558    1.304744
C       1.781659   -1.227596    0.559544
C       1.406518   -0.305223   -0.655704
C       0.033990    0.054009   -0.000613
H      -0.967044    2.128587    0.034840
H       1.477276    3.097470    0.015671
H       3.184557    1.080561   -0.370406
H       2.669983    0.185572    2.205162
H       0.188804   -0.797937    2.224604
H       2.179057   -2.228689    0.633111
H       1.487855   -0.531430   -1.718021
H      -0.834012   -0.512321   -0.338910
