23

C      -0.069873    1.388425    0.113205
O       0.051523   -0.011547    0.049806
C       0.675214   -0.506288   -1.132376
C       1.269042   -1.862611   -0.744662
C       2.160124   -2.541221   -1.792598
C       1.442665   -2.981511   -3.083218
C       1.029421   -1.849437   -3.993953
C       0.259235   -0.816942   -3.650160
C      -0.346593   -0.584515   -2.287144
H       0.910625    1.885702    0.042638
H      -0.717165    1.799751   -0.676232
H      -0.516498    1.629878    1.081391
H       1.490217    0.176284   -1.425979
H       1.846992   -1.707693    0.172945
H       0.439970   -2.531250   -0.475465
H       2.994928   -1.879238   -2.055667
H       2.604908   -3.428641   -1.326436
H       2.100257   -3.660252   -3.635936
H       0.560277   -3.578611   -2.807179
H       1.396153   -1.895388   -5.017005
H       0.038761   -0.067904   -4.407222
H      -1.064528   -1.379757   -2.041241
H      -0.920465    0.346598   -2.305408
