17

C      -0.050271    1.566563    0.000073
C       0.075392    0.065132    0.127682
O      -1.097411   -0.624999   -0.246501
C       1.349034   -0.725454   -0.253189
C       2.561959   -0.098652    0.333477
O       3.666081    0.117244   -0.087256
C       1.970447   -0.030054    1.768631
C       0.715899   -0.695826    1.222429
O       0.069262   -1.664731    1.928552
H       0.848483    2.080420    0.347862
H      -0.202250    1.846128   -1.049280
H      -0.907313    1.926789    0.577485
H      -1.230228   -0.527417   -1.195386
H       1.307175   -1.439775   -1.067891
H       2.526065   -0.710014    2.421341
H       1.871847    0.942648    2.258243
H      -0.754421   -1.849786    1.454961
