19

O       0.142729    1.452049    0.330939
C       0.096394    0.040057    0.176973
C      -1.335512   -0.467133   -0.026984
C      -1.442750   -1.998172   -0.118522
C      -2.877575   -2.562420   -0.003168
C      -2.999261   -3.529925   -1.151950
C      -1.923282   -3.536569   -1.946930
C      -0.914935   -2.574121   -1.450182
O       0.130289   -2.278187   -1.987193
H      -0.015277    1.844280   -0.533205
H       0.739415   -0.306535   -0.639883
H       0.498882   -0.373499    1.109609
H      -1.947317   -0.107678    0.808859
H      -1.755258   -0.017518   -0.938009
H      -0.819507   -2.438717    0.671888
H      -3.068175   -3.052109    0.958861
H      -3.632940   -1.770183   -0.092782
H      -3.889804   -4.132241   -1.300173
H      -1.774883   -4.119510   -2.846762
