23

C      -0.062313    1.554618   -0.026885
C      -0.001495    0.018858   -0.013641
C       0.663941   -0.527646   -1.286218
C       0.979008   -2.011625   -1.150555
O       1.500238   -2.457791   -2.397049
C       1.966209   -2.239382   -0.000430
C       1.584801   -1.486331    1.256000
C       2.264935   -1.925390    2.524326
C       0.695645   -0.490091    1.226031
H       0.945029    1.985258   -0.036697
H      -0.593805    1.917551   -0.912874
H      -0.581550    1.938314    0.857746
H      -1.042327   -0.343281    0.010937
H       0.022101   -0.367272   -2.158714
H       1.602264    0.010403   -1.474736
H       0.042263   -2.547683   -0.920170
H       1.718950   -3.391257   -2.310367
H       2.042555   -3.313715    0.223535
H       2.967422   -1.932532   -0.337326
H       3.357043   -1.860348    2.429923
H       1.961854   -1.315181    3.379385
H       2.037206   -2.974511    2.754613
H       0.442151    0.016276    2.156892
