17

C      -0.297510    1.465250    0.135153
N      -0.259475    0.016139    0.181708
C       0.563381   -0.562162    0.934386
N       0.697197   -1.943099    1.074969
C       1.891724   -2.259213    1.795405
C       3.202374   -1.662447    1.284658
O       3.261287   -1.235869   -0.034500
C       2.356458   -0.916892    2.293325
O       1.480589    0.055714    1.771591
H       0.590314    1.950631    0.559967
H      -0.408062    1.789064   -0.905592
H      -1.175721    1.837944    0.677973
H       0.465275   -2.468205    0.245027
H       1.884203   -3.156584    2.402877
H       4.113496   -2.115179    1.676089
H       3.388779   -0.280680   -0.043405
H       2.691015   -0.694722    3.298733
