18

C      -0.663432    0.953290    0.218024
O       0.052377   -0.262506    0.091485
C       0.821881   -0.348082   -1.086708
C       1.826071   -1.479386   -0.939569
C       2.218106   -2.018613    0.365182
O       1.304925   -2.726802   -0.483905
C      -0.019664   -0.631240   -2.351219
N      -1.167436   -1.315579   -2.098742
O       0.355788   -0.284288   -3.453026
H       0.016594    1.817180    0.222209
H      -1.393803    1.082134   -0.591739
H      -1.192809    0.912162    1.172436
H       1.372188    0.584259   -1.280081
H       2.515813   -1.551724   -1.780198
H       3.198021   -2.479180    0.480175
H       1.775540   -1.596987    1.262803
H      -1.290409   -1.732374   -1.189617
H      -1.673032   -1.694047   -2.883641
