11

N      -0.069756    1.268257   -0.223378
C       0.003344    0.031372   -0.017410
O       1.020643   -0.642381    0.598865
C       0.793426   -2.048278    0.467271
C      -0.705333   -2.114942    0.159051
O      -0.971619   -0.828777   -0.400541
H       0.778972    1.726402    0.099465
H       1.405939   -2.441945   -0.352075
H       1.073581   -2.541752    1.399691
H      -0.971015   -2.879086   -0.573469
H      -1.309496   -2.252566    1.063501
