17

C       0.252777    0.667686   -0.596385
O      -0.441790    0.237888    0.567799
C      -1.562698   -0.576370    0.333901
C      -1.203171   -2.051618    0.116579
O      -0.697764   -2.217819   -1.201324
C      -0.527700   -3.484582   -1.656691
O      -0.039045   -3.713133   -2.718775
C      -0.190571   -2.511563    1.164520
O       0.792859   -3.147930    0.902163
H       1.005801    1.383023   -0.259084
H       0.742288   -0.161735   -1.116394
H      -0.429602    1.169955   -1.297088
H      -2.187521   -0.507519    1.231786
H      -2.155270   -0.227211   -0.524000
H      -2.117542   -2.653622    0.256576
H      -0.919548   -4.249346   -0.962521
H      -0.455246   -2.230023    2.205696
