16

O      -0.022740    1.370695    0.125533
C       0.053380   -0.022013    0.026439
C      -0.521905   -0.748439    1.228783
C      -1.305059   -0.644563   -0.057906
C      -1.261522   -2.180299   -0.130966
C       0.091788   -2.787567    0.030654
N      -0.545861   -2.261621    1.233178
C      -2.448368   -3.030328   -0.385688
O      -2.455974   -4.231807   -0.267804
H       0.697849    1.669769    0.690773
H       0.899684   -0.384045   -0.552809
H      -0.666197   -0.245197    2.176020
H      -2.188960   -0.059661   -0.275390
H       0.089453   -3.873289    0.019248
H       0.974271   -2.324728   -0.393764
H      -3.356831   -2.473704   -0.707226
