21

C       0.051073    1.533575    0.056851
C      -0.004244    0.010741   -0.026222
O       0.779612   -0.587017    1.021498
C      -1.431831   -0.543506   -0.021512
C      -2.266914   -0.189534   -1.265766
O      -3.250725   -1.204523   -1.350990
C      -2.596607   -2.426344   -1.041443
C      -1.497688   -2.106604   -0.003342
O      -0.302371   -2.742240   -0.411736
H       1.090188    1.872427    0.083382
H      -0.440826    1.995627   -0.805034
H      -0.453134    1.895820    0.961518
H       0.493390   -0.322577   -0.942447
H       0.395630   -0.322855    1.865408
H      -1.955407   -0.163374    0.866106
H      -2.782144    0.772042   -1.202057
H      -1.627342   -0.182655   -2.166159
H      -3.353834   -3.127810   -0.683790
H      -2.102098   -2.853000   -1.926948
H      -1.789650   -2.454765    0.996832
H       0.380939   -2.446250    0.205918
