20

C       0.051605    1.487524    0.437413
C       0.070752    0.021882    0.004074
C      -1.355267   -0.550065   -0.106330
C      -1.346104   -1.983787   -0.386482
N      -1.320380   -3.121032   -0.589528
O       0.653356   -0.134226   -1.282452
C       2.041775   -0.295628   -1.289208
C       2.617865   -1.652810   -0.975135
C       2.595426   -1.129172   -2.397690
H       1.069170    1.884103    0.488860
H      -0.513871    2.091363   -0.279131
H      -0.401672    1.599637    1.427550
H       0.632780   -0.575093    0.735389
H      -1.908731   -0.371242    0.821327
H      -1.883521   -0.030897   -0.913568
H       2.604082    0.584742   -0.979185
H       3.565493   -1.707129   -0.450590
H       1.912653   -2.441032   -0.735554
H       1.870620   -1.573071   -3.070020
H       3.524769   -0.820530   -2.862498
