23

C       0.046867    1.385795   -0.256828
C       0.086127   -0.110562   -0.037884
C       1.406800   -0.814686    0.218716
C       0.377440   -0.680400    1.317966
O       0.579800    0.223541    2.360397
C       1.326211   -0.290673    3.436850
C       2.880419   -0.273503    3.383201
C       2.862438    0.181872    4.868870
C       1.387372    0.630016    4.670290
H       0.746592    1.895207    0.409406
H       0.307540    1.636925   -1.290575
H      -0.951958    1.787466   -0.054590
H      -0.638593   -0.671264   -0.622794
H       1.584907   -1.791131   -0.219298
H       2.286291   -0.184715    0.296414
H      -0.157428   -1.582233    1.621241
H       0.959880   -1.293553    3.704036
H       3.404258   -1.196418    3.125045
H       3.221855    0.531427    2.726049
H       2.943887   -0.664027    5.556951
H       3.583181    0.943840    5.170805
H       1.326919    1.674034    4.349929
H       0.670054    0.460872    5.476241
