19

C       0.050791    1.460196   -0.190197
C       0.211855   -0.037031   -0.050603
C       1.592833   -0.665141   -0.006501
C       0.744466   -0.631819    1.230150
O       1.190518    0.217944    2.255846
C       0.146930   -1.933265    1.781259
O      -0.439674   -2.718784    0.784028
C       1.241969   -2.719128    2.482552
O       1.486545   -3.861110    2.171080
H       0.805608    1.992966    0.394527
H       0.155564    1.766798   -1.236056
H      -0.937743    1.790166    0.150500
H      -0.544080   -0.640374   -0.542795
H       1.733104   -1.620439   -0.499597
H       2.450832   -0.001777   -0.016976
H       0.422293    0.666647    2.628386
H      -0.599560   -1.655499    2.549819
H       0.011778   -3.577914    0.837360
H       1.807266   -2.184355    3.266661
