15

O       0.005379    1.430550   -0.114326
C       0.044071    0.032003   -0.029608
C       0.994297   -0.548147   -0.986597
N       1.781947   -0.940500   -1.735655
C      -0.012604   -0.620673    1.369247
C      -1.508144   -0.235851    1.579833
C      -1.809787   -1.700072    1.884229
N      -0.749282   -1.857588    0.793083
C      -1.341081   -0.615162    0.077357
H       0.906380    1.771475   -0.081099
H       0.776906   -0.733979    2.112845
H      -1.914504    0.686619    1.998928
H      -1.497923   -2.103995    2.852111
H      -2.787693   -2.098306    1.597208
H      -2.105334   -0.716476   -0.692718
