20

O       0.089853    1.430266    0.121545
C       0.073396    0.008191    0.016639
C      -1.357072   -0.553803    0.086825
C      -1.377020   -2.028355   -0.265273
C      -1.186786   -3.023486    0.823069
N      -2.499069   -2.874712    0.161334
C      -0.853330   -2.310987   -1.663787
C       0.361839   -1.479285   -1.983410
C       0.779987   -0.461724   -1.230934
H      -0.306548    1.780961   -0.684210
H       0.633124   -0.326594    0.900238
H      -1.777459   -0.377417    1.082852
H      -1.979022    0.000525   -0.631075
H      -0.678503   -3.962910    0.622780
H      -1.072212   -2.657385    1.840703
H      -3.128064   -2.346044    0.761963
H      -0.626003   -3.377746   -1.773725
H      -1.647322   -2.105783   -2.397510
H       0.914269   -1.747749   -2.881015
H       1.673606    0.098146   -1.496323
