11

C      -0.044011    1.365821    0.065673
O       0.019419   -0.069796   -0.018421
C       0.631451   -0.546677   -1.106897
O       1.116600    0.110972   -1.991150
C       0.642199   -1.998651   -1.096141
C       0.696329   -3.202798   -1.168373
C       0.748889   -4.565315   -1.234505
N       0.792571   -5.724476   -1.288904
H       0.962534    1.789939    0.079064
H      -0.591966    1.772024   -0.787515
H      -0.565868    1.578312    0.997419
