20

C       0.193308    1.293739    0.052873
O       0.078912   -0.110751    0.072287
C      -1.263825   -0.589449    0.072175
C      -1.801531   -0.724275   -1.353479
C      -1.227783   -1.919641    0.817540
C      -0.959608   -1.747115    2.312427
C      -0.345398   -2.937943    3.022281
O      -1.238933   -0.725963    2.896904
H       1.260718    1.529807    0.059930
H      -0.252911    1.741328   -0.848172
H      -0.277387    1.746577    0.937654
H      -1.893947    0.102567    0.647755
H      -1.772690    0.237199   -1.874709
H      -1.200628   -1.438474   -1.925649
H      -2.840949   -1.068839   -1.348618
H      -2.189772   -2.441923    0.718830
H      -0.471926   -2.576163    0.371534
H       0.687239   -3.069956    2.677571
H      -0.349182   -2.777748    4.101111
H      -0.881829   -3.860674    2.774617
