21

C      -0.047202    1.341336   -0.010339
O       0.021879   -0.079336   -0.146590
C       0.756538   -0.538941   -1.176697
N       1.325224    0.233399   -2.004356
C       0.778747   -2.057141   -1.151455
N       1.252077   -2.604637   -2.413656
C       1.452927   -4.055901   -2.409847
C       2.181092   -4.460098   -3.689842
O       3.420011   -3.795345   -3.806536
H       0.951801    1.767760    0.115255
H      -0.505291    1.793108   -0.894464
H      -0.658078    1.524752    0.874480
H       1.841792   -0.329044   -2.679945
H       1.462465   -2.377031   -0.354928
H      -0.221924   -2.411531   -0.855258
H       0.594210   -2.360078   -3.149292
H       2.085935   -4.302596   -1.549516
H       0.513679   -4.625596   -2.304711
H       2.380963   -5.536800   -3.682463
H       1.530108   -4.256374   -4.559743
H       3.248076   -2.889571   -3.516048
