13

C       0.063983    1.355896   -0.141190
C       1.538908    1.857943    0.140199
C       2.097905    0.549012    0.566588
C       1.147013   -0.386559    0.701220
O      -0.109814   -0.002515    0.383697
N       1.654737   -1.561116    1.188155
C       2.917506   -1.266486    1.333652
O       3.277824    0.001932    0.987347
H      -0.691046    1.985285    0.332008
H      -0.126871    1.313688   -1.217128
H       1.980272    2.289113   -0.764112
H       1.569940    2.626543    0.922817
H       3.709279   -1.909068    1.683709
