17

C      -0.015452    1.423967    0.037612
O       1.213731    2.081225   -0.018620
C       1.913185    2.091124    1.215410
C       2.163122    0.728961    1.842013
C       2.351127   -0.576623    1.023052
O       2.101964   -1.333703    2.271307
C       1.056151   -0.289804    2.259377
C       0.808392   -0.700158    0.772981
O       0.083621    0.037657   -0.159367
H      -0.520389    1.636384    0.997247
H      -0.620898    1.793104   -0.792785
H       2.874779    2.566406    0.998757
H       1.388606    2.732162    1.943995
H       2.913802    0.820051    2.633285
H       3.186392   -0.895352    0.399564
H       0.373603   -0.261774    3.109896
H       0.501999   -1.741415    0.671436
