19

O      -0.161528    1.389347   -0.138439
C      -0.043606    0.009665    0.049444
C      -0.305484   -0.902870   -1.112040
C      -1.297260   -0.838346    0.036770
C      -1.159045   -1.912610    1.097438
O      -0.750283   -3.221116    0.615185
C       0.540214   -3.108404    1.250583
C       0.213099   -1.706006    1.801925
C       0.877578   -0.463426    1.178877
H       0.553756    1.674533   -0.716827
H      -0.618786   -0.423207   -2.033130
H       0.265494   -1.815490   -1.241934
H      -2.262209   -0.381488   -0.146557
H      -2.051834   -1.991952    1.725761
H       0.687027   -3.887125    2.009279
H       1.365726   -3.161075    0.527312
H       0.189580   -1.656150    2.891045
H       1.898992   -0.669233    0.835834
H       0.938240    0.348968    1.909465
