19

C       0.187264    1.397443    0.061472
C       0.076613   -0.053392    0.012929
C      -0.020772   -1.252087   -0.021526
C      -0.121832   -2.716352   -0.080615
C      -1.522699   -3.159304   -0.052779
C      -2.662056   -3.539393   -0.044975
C       0.610562   -3.283455   -1.301625
C       2.097798   -3.496743   -1.239054
C       1.160902   -4.682103   -1.253080
H       1.234717    1.718017    0.041817
H      -0.318094    1.863324   -0.791631
H      -0.265525    1.799586    0.974481
H       0.373981   -3.128552    0.811946
H      -3.671680   -3.867763   -0.032110
H       0.196502   -2.944146   -2.245221
H       2.683647   -3.287073   -2.126773
H       2.603881   -3.259968   -0.308798
H       1.037229   -5.242785   -0.332253
H       1.102209   -5.287898   -2.150186
