20

C      -0.166892    1.493764   -0.090732
C      -0.008603   -0.013466    0.027268
N       0.994413   -0.665398   -0.844516
C       1.313039   -0.480549   -2.143695
O       0.683361    0.201985   -2.929086
C       1.684792   -1.304599    0.258187
C       2.195409   -0.263835    1.219818
C       0.728920   -0.635329    1.242572
C       0.030044   -1.188981    2.448972
H       0.774909    2.014865    0.103135
H      -0.499465    1.755880   -1.097146
H      -0.910536    1.845554    0.631897
H      -0.982423   -0.501616   -0.107800
H       2.216598   -1.060261   -2.427496
H       2.037437   -2.327369    0.196291
H       2.763532   -0.650655    2.060994
H       2.542689    0.693641    0.842876
H      -0.345225   -0.384368    3.092498
H      -0.823693   -1.813959    2.164424
H       0.707407   -1.800748    3.053057
