14

O       0.395661    1.216488   -0.360502
C       0.175662   -0.065093    0.097401
C      -0.073813   -0.362386    1.597183
O      -1.184097   -1.246432    1.263837
C      -1.226126   -0.757155   -0.098814
C      -2.429875    0.197572   -0.145467
O      -2.334493    1.385110    0.039683
C      -1.346154   -1.819040   -1.089982
N      -1.447851   -2.632681   -1.904702
H      -0.384682    1.745205   -0.136358
H       0.963325   -0.702563   -0.309120
H       0.704609   -0.895566    2.147878
H      -0.410478    0.511757    2.165870
H      -3.411800   -0.298583   -0.269936
