23

C       1.236289   -0.878974    1.298906
C       0.240230   -0.300680    0.288635
C       0.693700   -0.389208   -1.167453
C       2.017226    0.318103   -1.435784
O       2.002725    1.599065   -0.852068
C       3.157763    2.348924   -1.139534
C       0.610258   -1.788073   -1.832706
C      -0.502641   -1.162081   -2.693558
O      -0.356864    0.115209   -2.045473
H       1.497419   -1.917338    1.063742
H       2.160086   -0.293846    1.323638
H       0.811572   -0.868202    2.307074
H      -0.721318   -0.821166    0.366010
H       0.051350    0.753628    0.510832
H       2.846342   -0.287348   -1.026941
H       2.166378    0.387643   -2.525629
H       3.277646    2.513863   -2.221900
H       3.051375    3.317286   -0.644676
H       4.070014    1.856383   -0.765625
H       1.504655   -2.097524   -2.378538
H       0.301301   -2.595967   -1.167066
H      -0.296443   -1.104867   -3.769661
H      -1.506400   -1.581948   -2.552484
