17

C       0.044272    1.503105    0.011597
C       0.023541    0.048816    0.004534
C       0.006496   -1.157842   -0.005809
C      -0.033551   -2.566572   -0.011272
C       0.835815   -3.660753    0.647387
C      -0.394798   -4.334457    1.252185
C      -1.173319   -3.673653    0.089209
O      -0.657563   -4.341369   -1.094967
C       0.566100   -3.655602   -0.859291
H       0.662190    1.893259    0.828372
H       0.442170    1.903416   -0.927854
H      -0.965750    1.908514    0.140003
H       1.825570   -3.537173    1.066927
H      -0.433158   -5.427220    1.297822
H      -0.655898   -3.894760    2.217584
H      -2.251351   -3.532891    0.078196
H       1.317351   -3.625082   -1.636860
