21

C       0.313785    1.450606   -0.167532
C      -0.052694   -0.036228    0.014958
C      -1.569744   -0.177177    0.200288
C       0.477059   -0.905533   -1.163875
C       1.835375   -1.487393   -0.704904
C       1.756547   -1.386349    0.794248
C       0.738663   -0.613163    1.199934
C       0.423398   -0.279180    2.539468
C       0.114355    0.034029    3.662247
H       1.383779    1.574630   -0.363399
H      -0.239581    1.883599   -1.008213
H       0.069246    2.025569    0.731317
H      -2.100508    0.184252   -0.687471
H      -1.852135   -1.222368    0.362373
H      -1.917164    0.402317    1.061248
H      -0.223060   -1.727309   -1.346096
H       0.551619   -0.332709   -2.092539
H       1.992532   -2.514422   -1.053681
H       2.687989   -0.906164   -1.085056
H       2.470780   -1.855798    1.461051
H      -0.143771    0.298740    4.657431
