18

C      -0.005160   -1.194230    0.034843
C      -0.012216    0.009283    0.039851
C      -0.018396    1.449886    0.043944
C      -0.935475    2.174045    1.032982
C      -0.573186    3.629883    0.639123
N       0.427085    3.473076   -0.440770
C       1.311932    2.296118   -0.050968
C       1.450879    1.952931   -1.543608
C      -0.027321    2.293883   -1.291151
H      -0.000173   -2.256081    0.032057
H      -1.987878    1.925751    0.868798
H      -0.690607    1.927917    2.070102
H      -1.428218    4.196356    0.259269
H      -0.129887    4.198525    1.461555
H       2.083912    2.388513    0.716052
H       2.004925    2.675057   -2.143215
H       1.683173    0.917844   -1.792595
H      -0.851458    2.383614   -2.002176
