15

C      -0.044217    1.306477   -0.180059
C       0.180586   -0.181175   -0.229913
O       1.163401   -0.767487    0.137859
O      -0.907468   -0.807404   -0.760047
C      -0.757668   -2.196094   -0.982174
C       0.029232   -2.473946   -2.262913
O       0.488674   -1.597393   -2.954656
C       0.173193   -3.884435   -2.571629
C       0.268446   -5.062308   -2.799723
H       0.738280    1.772894    0.417112
H      -0.011689    1.703629   -1.199334
H      -1.030255    1.534703    0.231209
H      -0.245779   -2.682827   -0.145195
H      -1.763796   -2.615654   -1.076127
H       0.368829   -6.098343   -3.017103
