24

C       0.062481    1.549398   -0.415681
C       0.006776    0.072787   -0.085004
C       1.231568   -0.775751   -0.112613
N       0.547823   -0.504517    1.150823
C       1.217218    0.339575    2.118208
C       0.322692    1.024550    3.180757
C       1.385561    0.665938    4.253971
C       1.987974   -0.385665    3.272402
C       1.543686   -1.818275    3.551039
H       1.034352    1.993316   -0.188130
H      -0.124603    1.695271   -1.485039
H      -0.704160    2.107837    0.132615
H      -0.930371   -0.399591   -0.378436
H       1.200235   -1.803425   -0.466051
H       2.176937   -0.264100   -0.295827
H       1.886764    1.079778    1.652574
H       0.079209    2.079360    3.031575
H      -0.606334    0.465421    3.318100
H       2.071127    1.493767    4.454371
H       1.017736    0.283471    5.209688
H       3.077604   -0.354445    3.172321
H       0.457768   -1.891249    3.661139
H       1.831986   -2.490741    2.737572
H       2.005193   -2.183126    4.475546
