16

O      -0.023554    1.400736    0.651813
C       0.068257    0.078433    0.209198
C      -0.576221   -1.013326    1.025843
C      -1.209377   -0.551476   -0.268625
C      -2.497833    0.275287   -0.226818
C      -2.777295    0.911834   -1.516080
C      -2.983433    1.425941   -2.580495
C      -3.636558   -0.553907    0.207927
N      -4.514329   -1.212205    0.568660
H       0.536179    1.498237    1.429034
H       0.975304   -0.156360   -0.345929
H      -0.122411   -1.997214    1.056026
H      -1.060982   -0.707893    1.947767
H      -1.144624   -1.217579   -1.121384
H      -2.356400    1.061359    0.525680
H      -3.173585    1.887333   -3.518150
