15

O      -0.477513    0.449220   -0.597400
C       0.088064    1.129891    0.223899
C       1.318561    1.951543    0.004615
N       2.403475    1.717330   -0.972470
C       1.819865    1.122216   -2.239527
C       0.894936    2.341169   -2.464811
C       1.474839    2.896501   -1.158192
C       1.864873    4.258756   -0.941199
N       2.147596    5.369471   -0.784111
H      -0.296895    1.207124    1.263782
H       1.734303    2.337043    0.932284
H       2.626318    1.044422   -2.969370
H       1.341747    0.156008   -2.096095
H       1.174048    2.949260   -3.325412
H      -0.179814    2.160038   -2.470086
