21

C      -0.245049    1.385374   -0.697507
O      -0.246356   -0.017208   -0.814888
C       0.928079   -0.612411   -0.312632
C       0.821289   -2.115528   -0.528411
C       0.734187   -2.521209   -2.002794
C       0.852788   -4.042821   -2.104824
O       2.015524   -4.497153   -1.419940
C       2.000460   -4.087012   -0.081011
O       1.981946   -2.690466    0.066861
H      -0.165583    1.706906    0.352877
H       0.586168    1.840884   -1.258514
H      -1.190143    1.749166   -1.107850
H       1.822385   -0.227905   -0.830708
H       1.053356   -0.405174    0.762303
H      -0.077375   -2.481547   -0.001522
H      -0.206403   -2.168187   -2.434822
H       1.561282   -2.055223   -2.550505
H      -0.043284   -4.523316   -1.675319
H       0.951795   -4.376496   -3.140731
H       1.122999   -4.524531    0.435179
H       2.925060   -4.444411    0.376697
