18

C      -0.104740    1.433143    0.103789
C      -0.040226   -0.019025    0.033640
C       0.030882   -1.219369   -0.033284
C       0.054426   -2.678628   -0.101462
N       0.773100   -3.277128    1.037626
C      -0.230721   -3.389725    2.118673
C      -1.567255   -3.746652    1.443600
C      -1.410612   -3.213215    0.014739
O      -2.227515   -3.234095   -0.863037
H       0.573525    1.822479    0.870884
H       0.178912    1.887567   -0.851739
H      -1.116187    1.776431    0.347357
H       0.488179   -3.007084   -1.051149
H       1.065240   -4.211594    0.764647
H       0.097336   -4.124525    2.856159
H      -0.301213   -2.419798    2.622270
H      -1.714439   -4.831583    1.382878
H      -2.459637   -3.324688    1.913222
