18

C       0.018776    1.568394   -0.045497
C       0.159363    0.059190   -0.029209
O       1.018606   -0.351396   -1.092228
C       1.360468   -1.699604   -0.833406
C       1.577631   -1.789738    0.680609
O       2.953207   -1.507386    1.035392
C       2.928524   -0.307536    1.661327
N       1.826629    0.286716    1.854493
C       0.793958   -0.562634    1.243301
H       0.988545    2.041938    0.115567
H      -0.386859    1.894953   -1.006727
H      -0.659229    1.894363    0.748522
H      -0.829963   -0.412390   -0.168814
H       0.542468   -2.379208   -1.126743
H       2.256751   -1.953848   -1.403134
H       1.321368   -2.763505    1.100730
H       3.902320    0.052609    1.974534
H       0.031421   -0.808897    1.986382
