19

C      -0.288164    1.400538    0.443851
C       0.149512   -0.039914    0.250407
C       0.787457   -0.500906   -1.092502
C       1.988162   -0.952936   -0.259439
C       2.639551   -2.314114   -0.300942
O       3.230990   -2.623561    0.943558
C       2.546342    0.178367    0.499468
N       1.351285   -0.504959    1.050519
H       0.484830    2.117132    0.150669
H      -1.177049    1.608411   -0.161523
H      -0.541131    1.584181    1.493215
H      -0.674874   -0.702920    0.527406
H       0.244685   -1.320143   -1.568975
H       0.991442    0.268703   -1.842880
H       1.883247   -3.065228   -0.587727
H       3.434527   -2.348492   -1.055869
H       2.579831   -2.359720    1.609996
H       3.431880   -0.013937    1.095177
H       2.461888    1.191445    0.115789
