17

O      -0.038408   -0.065646   -0.192165
C      -0.000659    1.115596    0.054578
C       1.272390    1.913187    0.038367
C       1.218674    3.354631   -0.567523
O       0.375794    3.779170    0.577826
C       1.476290    2.976904    1.167624
C       2.460609    3.718313    0.255105
C       3.930057    3.667031    0.025781
C       3.234660    4.972048    0.413113
H      -0.912387    1.689031    0.311695
H       2.132104    1.293498   -0.223949
H       0.914006    3.665766   -1.566886
H       1.480386    2.834886    2.248435
H       4.555142    3.184899    0.770420
H       4.293476    3.568529   -0.992011
H       3.137199    5.739358   -0.347743
H       3.398885    5.355650    1.414637
