17

O       0.238227    1.093283   -0.145031
C      -0.119809   -0.236900    0.162724
C      -1.645082   -0.427845    0.093898
C      -2.316881    0.463232    1.136191
O      -2.366916    0.182459    2.304417
N      -2.091872   -0.033654   -1.239980
C      -2.164503   -1.087416   -2.250144
C      -3.406251   -0.509555   -1.669764
H      -0.255054    1.319124   -0.944568
H       0.358327   -0.959227   -0.519154
H       0.226603   -0.447063    1.178611
H      -1.888581   -1.474764    0.343986
H      -2.751492    1.404220    0.735274
H      -1.843745   -0.807334   -3.248840
H      -1.893374   -2.097668   -1.949819
H      -3.969975   -1.133224   -0.978448
H      -4.002117    0.198674   -2.237136
