14

O       0.201851    1.485363    0.074639
C       0.018583    0.122896   -0.024715
C      -1.457329   -0.391598   -0.187678
N      -0.983913   -1.191504   -1.326675
C       0.250312   -0.552404   -1.408765
N       1.215120   -0.478073   -2.215529
C       0.774047   -0.608849    1.064518
O       1.474714   -0.014260    1.845700
H       0.857407    1.612925    0.780624
H      -1.890761   -0.976393    0.629644
H      -2.113371    0.444934   -0.446671
H      -1.544034   -1.511544   -2.104010
H       1.041312   -0.997414   -3.077962
H       0.648385   -1.708397    1.094190
