23

C      -0.737312    1.383598    0.136617
C      -0.005456    0.051564   -0.012549
C       1.154152    0.059268   -1.022805
C       1.925337   -1.244592   -0.742793
C       3.456317   -1.175647   -0.985983
C       4.039553   -1.122193    0.405636
C       3.122863   -1.307798    1.353941
C       1.732597   -1.489021    0.798113
C       0.678790   -0.450457    1.275075
H      -0.045929    2.175060    0.449637
H      -1.196630    1.696294   -0.807443
H      -1.532588    1.321185    0.887330
H      -0.729160   -0.711529   -0.335015
H       0.819910    0.143836   -2.062036
H       1.801312    0.924217   -0.819472
H       1.477170   -2.058378   -1.319793
H       3.826305   -2.053962   -1.531774
H       3.739691   -0.304270   -1.591319
H       5.098246   -0.964510    0.585032
H       3.324778   -1.323645    2.420483
H       1.366531   -2.503482    1.000523
H       1.180215    0.392585    1.767707
H      -0.031990   -0.865602    1.996164
