19

C       0.100096    1.496251   -0.006203
C      -0.023545   -0.012991    0.006178
C      -0.862952   -0.694821    1.033201
N       0.594598   -0.714843    1.146805
C       1.259917   -1.997023    0.863605
C       1.914903   -1.986343   -0.512043
N       0.906396   -1.667558   -1.515071
C       0.027543   -0.629526   -1.377983
O      -0.654545   -0.214300   -2.296394
H       1.079056    1.807212   -0.386836
H      -0.667757    1.922957   -0.656062
H      -0.013038    1.893040    1.005210
H      -1.390612   -0.098451    1.773697
H      -1.364751   -1.619314    0.751704
H       2.019378   -2.167939    1.634491
H       0.548194   -2.831785    0.907892
H       2.743197   -1.263029   -0.531161
H       2.334759   -2.971353   -0.734697
H       1.018805   -2.003504   -2.460610
