16

N       0.052714    1.290685    0.443873
C       0.008161    0.158892   -0.300151
O       0.912965   -0.217203   -1.015966
C      -1.286537   -0.676140   -0.206452
C      -1.840285   -1.109256   -1.614811
N      -1.451233   -2.513697   -1.369435
C      -1.012327   -2.211087    0.008903
C      -2.281972   -0.110414    0.685196
N      -3.054767    0.366581    1.403053
H       0.887407    1.852090    0.398562
H      -0.709491    1.584925    1.030947
H      -2.912863   -0.923821   -1.727702
H      -1.295864   -0.651775   -2.444874
H      -2.226899   -3.162703   -1.414302
H       0.043528   -2.434429    0.182054
H      -1.619332   -2.645258    0.809274
