23

C       0.051237    1.545022   -0.080684
C       0.007187    0.019357    0.027272
C      -1.417139   -0.543164    0.019142
O      -2.113928   -0.211473   -1.178501
C      -1.445371   -2.063948    0.288973
O      -0.850884   -2.345585    1.557719
C      -2.837102   -2.644410    0.168756
C      -3.280687   -3.341705   -1.090581
C      -3.017334   -4.142193    0.157999
H       1.081303    1.909091   -0.140740
H      -0.487712    1.886332   -0.968847
H      -0.417380    2.014598    0.791531
H       0.558924   -0.430853   -0.812479
H       0.505794   -0.323228    0.939053
H      -1.998854   -0.057016    0.816504
H      -1.627815   -0.597698   -1.915689
H      -0.787728   -2.562082   -0.438978
H      -1.511401   -2.161380    2.234202
H      -3.603141   -2.066137    0.682408
H      -4.305188   -3.203392   -1.416697
H      -2.566526   -3.422237   -1.903649
H      -2.120738   -4.751560    0.197027
H      -3.863241   -4.563069    0.690039
