15

O      -0.664291    0.850728    0.814249
C       0.030902    1.034510   -0.150564
C       1.317004    1.830030   -0.156055
C       1.283823    2.961470   -1.196094
C       2.632884    3.702417   -1.292837
C       2.614629    4.779350   -2.274595
C       2.571023    5.660677   -3.090554
H      -0.247554    0.612584   -1.145635
H       1.495962    2.211505    0.853663
H       2.131947    1.134563   -0.407240
H       1.028376    2.556823   -2.182298
H       0.497767    3.679787   -0.940146
H       2.897973    4.107925   -0.307815
H       3.424023    2.985031   -1.548082
H       2.544945    6.442883   -3.808078
