14

O       0.004923   -0.015387    0.179440
C      -0.008006    1.178627    0.002385
C      -1.305567    1.975956   -0.109245
O      -1.167708    3.145821   -0.891380
C      -0.174371    4.021602   -0.415588
C       1.138212    3.346105   -0.169733
C       1.233627    2.009807   -0.036219
C       2.491254    1.355875    0.151921
N       3.515340    0.838637    0.299622
H      -2.063982    1.351587   -0.584631
H      -1.648719    2.211713    0.914318
H      -0.054475    4.801453   -1.175595
H      -0.494445    4.532420    0.513909
H       2.021580    3.974644   -0.098352
