16

C      -0.045593    1.453021    0.097439
C       1.283222    0.746345    0.042565
C       2.041537    0.426652    1.354693
C       1.071912   -0.498702    2.034962
C       0.004771   -0.767830    1.255334
O      -0.853029   -1.567435    1.944240
C      -0.210894   -1.741255    3.142094
N       0.924146   -1.124317    3.262387
C      -0.029744   -0.060289   -0.031730
H      -0.383088    1.874240    1.038915
H      -0.333738    2.022353   -0.780609
H       1.871233    0.871348   -0.858632
H       3.006951   -0.050436    1.147509
H       2.250954    1.332990    1.933798
H      -0.703175   -2.384239    3.854292
H      -0.365818   -0.535478   -0.945415
