18

C       0.130091    1.562636   -0.042870
N      -0.212424    0.160301   -0.255181
C       0.574952   -0.523259   -1.243939
C       2.085260   -0.659322   -0.943720
O       2.568293   -0.398215    0.125173
C       0.048717   -1.947251   -1.439986
O      -0.615722   -2.547707   -0.639079
O       0.484836   -2.452690   -2.608434
C       0.112236   -3.816495   -2.865521
H       1.160554    1.738177    0.295840
H      -0.025381    2.117256   -0.976090
H      -0.553432    1.980062    0.701577
H      -0.196161   -0.363254    0.612066
H       0.498939   -0.011352   -2.213417
H       2.699155   -1.029473   -1.794466
H       0.489167   -4.472058   -2.076944
H      -0.974964   -3.911313   -2.914831
H       0.562446   -4.069816   -3.824843
