19

C       1.824591   -0.308608    0.590386
C       0.418638   -0.217245   -0.031144
C       0.431581   -0.322339   -1.535948
C       0.064331   -1.635816   -2.187415
O       0.917211   -2.696389   -1.786703
C       2.171942   -2.679178   -2.438300
N       0.736518    0.623903   -2.341221
O       1.052261    1.813053   -1.664271
H       2.282684   -1.276289    0.370007
H       2.469231    0.482591    0.200539
H       1.767285   -0.199904    1.677704
H      -0.210843   -1.016312    0.372524
H      -0.034256    0.740712    0.243547
H      -0.941119   -1.933096   -1.866079
H       0.061739   -1.512088   -3.278924
H       2.058402   -2.784974   -3.527924
H       2.732445   -1.755262   -2.240137
H       2.740930   -3.529988   -2.055835
H       1.224367    2.420095   -2.391765
