18

C       0.463006    1.465219   -0.094846
O       0.754029    0.087673   -0.070128
C       0.090401   -0.625299   -1.088807
C       0.449706   -2.075659   -1.035693
C       1.373753   -2.753497   -0.304939
C       2.392446   -2.414516    0.720169
O       1.274529   -4.080547   -0.668050
C       0.297651   -4.113805   -1.597363
N      -0.233019   -2.968303   -1.862523
H       0.774551    1.930384   -1.043189
H      -0.612744    1.655282    0.043649
H       1.013565    1.930427    0.725932
H      -1.003674   -0.522327   -0.990273
H       0.350511   -0.215125   -2.080849
H       2.199758   -2.943767    1.660383
H       3.397613   -2.696287    0.386244
H       2.367014   -1.342160    0.907116
H       0.057681   -5.077213   -2.019493
