19

C      -0.021020    1.562944   -0.096573
C       1.539600    1.604488    0.022602
C       2.106188    1.959439    1.438153
C       1.571261    0.605995    1.855581
C       0.726608    0.169471    2.784659
C      -0.196463   -0.932139    2.322612
O      -0.850094   -0.571512    1.086664
C      -0.016513    0.000222    0.098154
C       1.487285    0.090800    0.427580
H      -0.555905    2.101305    0.688538
H      -0.404011    1.885775   -1.066985
H       2.084455    1.969774   -0.848118
H       3.200654    2.011615    1.400031
H       1.722183    2.841740    1.959184
H       0.546862    0.684585    3.723339
H       0.343024   -1.880562    2.180417
H      -1.004580   -1.114539    3.034539
H      -0.229563   -0.518665   -0.843209
H       2.190187   -0.672672    0.090908
