16

C       0.111059    1.495007    0.406132
C      -0.079557    0.051718   -0.060297
C       0.826643   -0.919637    0.701092
O       1.618385   -0.589873    1.544417
C      -1.493820   -0.446796    0.031234
C      -2.515781   -0.087851    0.882269
N      -3.535856   -0.902650    0.525922
N      -3.187224   -1.725758   -0.477597
N      -1.950851   -1.451454   -0.776201
H       1.155733    1.793711    0.298299
H      -0.514351    2.176134   -0.176497
H      -0.143094    1.602794    1.464689
H       0.213627   -0.051447   -1.115216
H       0.688946   -1.983650    0.410626
H      -2.602177    0.646355    1.664468
H      -4.471161   -0.948029    0.898373
