21

C      -0.057730    1.555391   -0.046303
C       0.043783    0.033120    0.001044
C       0.660681   -0.617231   -1.239084
N       2.061928   -0.226715   -1.490765
C       1.766357   -1.495957   -0.787453
C       1.836743   -1.417533    0.728417
C       2.002874   -2.714506    1.482052
C       2.224148   -0.097983    1.293985
N       0.798673   -0.465189    1.182443
H       0.915303    2.005647   -0.256969
H      -0.752361    1.868352   -0.832656
H      -0.425939    1.942309    0.907960
H      -0.967428   -0.381479    0.108824
H       0.022931   -0.865379   -2.083348
H       2.301246   -0.425002   -2.459433
H       2.001174   -2.436949   -1.273910
H       3.000627   -3.138347    1.319886
H       1.869040   -2.550035    2.553828
H       1.264232   -3.458437    1.160985
H       2.579569   -0.035936    2.320277
H       2.645198    0.628009    0.608307
