20

O       0.064177    0.028657    0.354006
C       0.008669    1.215169    0.102170
C      -1.313608    1.946927   -0.067123
C      -1.264926    3.095419   -1.087846
C      -0.075541    4.025055   -0.818091
C       1.244457    3.250061   -0.913318
C       1.266178    2.045155    0.012060
C       2.069989    2.041020    1.282038
N       2.527131    1.306037    0.106759
H      -2.085996    1.208328   -0.297003
H      -1.555990    2.361068    0.923227
H      -1.178885    2.681860   -2.101179
H      -2.208470    3.650079   -1.057670
H      -0.071289    4.854413   -1.532927
H      -0.176324    4.470352    0.180941
H       1.382700    2.896923   -1.943971
H       2.101456    3.893285   -0.691134
H       2.644513    2.929468    1.533099
H       1.682657    1.481056    2.129231
H       2.285345    0.320643    0.223730
