21

C      -0.053004    1.396384   -0.078277
O      -0.102880   -0.010508   -0.114190
C       0.707965   -0.559737   -1.121830
C       0.631151   -2.101960   -1.042365
C       1.181018   -2.601540    0.301053
O      -0.708181   -2.583363   -1.085099
C      -1.492180   -2.187404   -2.192353
C       1.423797   -2.645847   -2.161733
C       2.067184   -3.079888   -3.080057
H       0.963822    1.764224    0.131479
H      -0.388165    1.841364   -1.028487
H      -0.720761    1.725875    0.721143
H       0.387598   -0.212667   -2.116478
H       1.761128   -0.258908   -0.999405
H       0.616408   -2.134440    1.109559
H       1.068553   -3.685712    0.359456
H       2.239167   -2.347981    0.401562
H      -2.409902   -2.778556   -2.144472
H      -1.760282   -1.123659   -2.146018
H      -0.988579   -2.393534   -3.146570
H       2.636376   -3.474983   -3.885277
