15

C      -0.023659    1.538807    0.023635
C      -0.026529    0.011631   -0.022282
N      -1.380292   -0.535762    0.001294
N      -2.039435   -0.730871    1.141438
C      -3.233301   -1.164872    0.747848
C      -3.244961   -1.209909   -0.658127
N      -2.046233   -0.798438   -1.105959
C      -4.289038   -1.612962   -1.530274
N      -5.164169   -1.947678   -2.209058
H       1.007066    1.903865    0.009229
H      -0.549712    1.953140   -0.840427
H      -0.505919    1.898812    0.935987
H       0.436926   -0.361394   -0.936930
H       0.493365   -0.412174    0.839043
H      -4.005701   -1.424936    1.452673
