21

C      -0.261387    1.472201    0.065850
C       0.051946   -0.020009   -0.011125
C       0.906990   -0.406337   -1.247188
C       2.327726   -0.460290   -0.694769
C       2.187197   -0.406379    0.808784
O       0.823282   -0.430896    1.137102
C       2.760166   -1.642257    0.147824
C       2.038790   -2.966617    0.165843
O       4.164133   -1.733974    0.184841
H       0.657270    2.064508   -0.006264
H      -0.927185    1.772033   -0.750593
H      -0.749006    1.708781    1.015497
H      -0.879847   -0.593756    0.031570
H       0.585380   -1.363148   -1.669517
H       0.823631    0.342908   -2.038938
H       3.122119    0.078383   -1.196295
H       2.815660    0.211676    1.444053
H       0.958889   -2.836216    0.252672
H       2.260072   -3.545529   -0.736669
H       2.363724   -3.556348    1.031884
H       4.409910   -2.109371    1.038325
