17

O      -0.233097    0.248660    0.128380
C       0.076637    1.410952    0.061170
C       1.472359    1.906096   -0.255991
C       1.486731    2.886595   -1.420224
O       0.595449    4.028099   -1.232976
C       1.655040    4.967047   -1.490951
C       2.400356    5.391072   -0.219591
O       3.275148    4.231573   -0.313833
C       2.696668    3.833575   -1.567829
H      -0.665323    2.218126    0.240248
H       1.869790    2.424594    0.625998
H       2.111813    1.045165   -0.473422
H       1.240628    2.381149   -2.364200
H       1.404278    5.702785   -2.255861
H       2.974605    6.321671   -0.305296
H       1.799464    5.398018    0.695233
H       3.439479    3.643042   -2.343559
