16

O      -0.668721    1.244726    0.647444
C      -0.049997    0.117681    0.043844
C       0.782217   -0.710556    1.065592
N      -0.084048   -1.784336    1.565627
C      -1.104527   -1.826026    0.816025
C      -1.180144   -0.853245   -0.330949
O      -2.133714   -2.712544    0.937887
C      -2.199861   -3.506515    2.062835
O      -3.046136   -4.335884    2.166050
H       0.022982    1.831575    0.969789
H       0.549012    0.420839   -0.824624
H       1.672804   -1.155650    0.603804
H       1.126019   -0.084383    1.896684
H      -2.144446   -0.345066   -0.400015
H      -1.000280   -1.371331   -1.279177
H      -1.416148   -3.264294    2.791378
