16

C       0.061383    1.532333   -0.136511
C       0.035216    0.082644   -0.019371
C       0.001117   -1.116715    0.072074
C      -0.010020   -2.562813    0.185570
C       0.532556   -3.107885    1.531593
N      -0.297843   -4.287254    1.668807
C      -1.487104   -4.139987    0.980332
O      -2.481207   -4.801991    1.073524
O      -1.356916   -3.085984    0.116265
H       0.610916    1.849308   -1.029175
H      -0.955167    1.933228   -0.210357
H       0.538898    1.993517    0.734560
H       0.552299   -3.012196   -0.643299
H       1.596601   -3.347837    1.465321
H       0.380370   -2.378867    2.337704
H      -0.337369   -4.810521    2.528730
