16

N       0.019799   -1.055454    0.138204
C      -0.014595    0.097106    0.053800
C      -0.018108    1.535705   -0.073696
C       0.566411    2.131803   -1.347697
C       1.330221    2.244981   -0.054830
O       1.387047    3.488573    0.569022
C       0.460388    3.599247    1.646839
C      -0.949816    3.396566    1.126333
O      -1.128239    2.094439    0.563342
H       0.920257    1.450329   -2.112040
H       0.092847    3.038835   -1.705820
H       2.222036    1.638328    0.085420
H       0.691092    2.868550    2.435312
H       0.577855    4.606964    2.052510
H      -1.686048    3.475445    1.930943
H      -1.171876    4.164981    0.372051
