15

O       0.553688    1.294668   -0.315739
C       0.183529   -0.022251    0.007356
C       0.744030   -0.535635    1.306818
C      -0.165303   -1.194643    2.025657
C      -1.539887   -1.213271    1.371582
C      -2.661453   -0.945191    2.256386
C      -3.579215   -0.719657    2.997392
C      -1.328796   -0.151376    0.259183
O      -2.153660    0.547570   -0.258882
H      -0.231782    1.708002   -0.700962
H       0.449426   -0.709938   -0.818958
H       1.783779   -0.397365    1.576316
H       0.006713   -1.681742    2.977248
H      -1.708296   -2.177333    0.863667
H      -4.394182   -0.515803    3.647111
