11

O      -0.074916    1.294779    0.009722
C       1.229821    1.801096    0.000018
C       2.163344    0.814143   -0.014341
C       1.416711   -0.419479   -0.013985
C       0.110888   -0.022007    0.000733
O      -0.772479   -1.000519    0.003840
N       0.009232   -2.204661   -0.010140
C       1.272913   -1.832779   -0.020413
H       1.287472    2.875935    0.005358
H       3.231133    0.963227   -0.023763
H       2.019695   -2.614492   -0.031878
