16

C       0.022382    1.688645    0.194678
C      -0.027018    0.164496    0.041580
C       0.765729   -0.521213    1.178880
C       0.784209   -1.978456    1.078115
N       0.793062   -3.131073    1.002190
N      -1.391785   -0.335303   -0.006984
C      -1.977930   -0.764547   -1.162314
O      -1.443944   -0.775614   -2.249127
H       1.055786    2.049361    0.192753
H      -0.508326    2.163648   -0.633557
H      -0.446956    2.009216    1.131977
H       0.411415   -0.117818   -0.918812
H       1.796998   -0.152464    1.174797
H       0.340754   -0.244329    2.152475
H      -1.946562   -0.331552    0.835407
H      -3.016286   -1.108337   -0.991373
