17

C      -0.301989    1.367860   -0.583953
C      -0.026670   -0.028581   -0.058927
C       0.989500   -0.874519   -0.760632
N       1.267395   -0.327645    0.575945
C      -1.156415   -0.689619    0.626574
C      -1.290397   -1.413477    1.765215
N      -2.617095   -1.808313    1.909910
C      -3.206908   -1.311763    0.874838
O      -2.396848   -0.616952    0.039850
H       0.571781    1.758574   -1.114593
H      -1.148855    1.364649   -1.276081
H      -0.543773    2.051428    0.236941
H       0.863295   -1.952269   -0.793783
H       1.493737   -0.441948   -1.621304
H       1.876208    0.484038    0.506049
H      -0.529336   -1.672402    2.481687
H      -4.247009   -1.375946    0.596210
