21

C      -0.281607    1.534158    0.000665
C       0.032024    0.039461    0.022134
C       0.779190   -0.482612   -1.262864
C       1.948526   -1.332197   -0.709142
C       3.013780   -0.372198   -0.130970
C       2.321016    0.230963    1.145751
C       0.938529   -0.461070    1.181142
C       1.319072   -1.832220    0.600704
O       1.165379   -2.940911    1.030425
H       0.619902    2.142942   -0.122906
H      -0.948167    1.769254   -0.836365
H      -0.779581    1.852930    0.922560
H      -0.919689   -0.498265    0.109397
H       0.112181   -1.077739   -1.892282
H       1.152244    0.346793   -1.873348
H       2.327932   -2.104678   -1.375902
H       3.924629   -0.914364    0.137890
H       3.291961    0.397898   -0.856043
H       2.887813   -0.012158    2.048630
H       2.242047    1.319085    1.101779
H       0.455275   -0.486005    2.157095
