15

C      -0.000882    1.484131   -0.029859
N      -0.009137    0.041061    0.029612
C      -0.058804   -0.838469   -1.042472
N      -0.054450   -2.109721   -0.735150
C       0.002789   -2.095598    0.645708
N       0.036684   -3.008870    1.616121
N       0.087340   -2.239479    2.726410
C       0.087520   -0.883127    2.515603
C       0.032207   -0.770021    1.144724
H       0.911732    1.892523    0.418270
H      -0.042738    1.796708   -1.075468
H      -0.866305    1.905669    0.493380
H      -0.097921   -0.447697   -2.051088
H       0.121715   -2.699328    3.620211
H       0.125884   -0.184535    3.334158
