21

C      -0.008211    1.597898   -0.105883
O       1.361377    1.976012   -0.226298
C       2.158570    0.839088   -0.620603
C       1.136900   -0.268499   -0.945333
C      -0.010830    0.070255    0.022739
C       0.223261   -0.418452    1.468696
C       1.335470    0.277225    2.283982
C       2.742754    0.182921    1.737788
C       3.112299    0.435876    0.482745
H      -0.433876    2.112123    0.763692
H      -0.571111    1.915878   -0.997251
H       2.731157    1.131380   -1.507852
H       0.790959   -0.173798   -1.980479
H       1.547790   -1.270761   -0.809544
H      -0.957729   -0.349310   -0.331629
H      -0.715387   -0.294268    2.024007
H       0.423100   -1.496844    1.443719
H       1.081163    1.338070    2.411073
H       1.318503   -0.152077    3.291573
H       3.514553   -0.086496    2.455514
H       4.160397    0.344959    0.208289
