19

O      -0.007484    1.468655   -0.076289
C       0.074916    0.065949    0.095069
C      -1.305449   -0.571418    0.060585
O      -1.915608   -0.229185   -1.203975
C      -2.771881   -1.300466   -1.544390
C      -2.168460   -2.658711   -1.845422
C      -0.792905   -2.749560   -1.189178
C      -1.405171   -2.098591    0.099519
C      -2.823276   -2.348999   -0.490718
H      -0.532296    1.607385   -0.873355
H       0.720847   -0.392260   -0.668509
H       0.535621   -0.108025    1.073762
H      -1.909508   -0.134967    0.872778
H      -3.658182   -0.992809   -2.086029
H      -2.539570   -3.280213   -2.652750
H      -0.506906   -3.787408   -1.003445
H       0.037755   -2.232060   -1.678267
H      -1.144920   -2.549418    1.056242
H      -3.701230   -2.745332    0.001367
