15

C      -0.011792    1.498224   -0.021595
N      -0.017977    0.058631    0.118969
C      -1.263272   -0.632310    0.509486
C      -0.415673   -1.622956    1.342197
C       0.699573   -0.541165    1.257899
C       2.075861   -0.959658    0.991899
N       3.162714   -1.297051    0.790242
H       1.006669    1.843959   -0.224574
H      -0.639353    1.784248   -0.871358
H      -0.386126    2.023732    0.877010
H      -1.919054   -0.014987    1.145097
H      -1.847719   -1.028362   -0.325889
H      -0.765252   -1.878949    2.341183
H      -0.152337   -2.526680    0.793102
H       0.699059    0.098558    2.156872
