14

C      -0.012025    1.522108    0.007542
C      -0.000571    0.015322    0.013899
C      -0.092682   -0.717845   -1.171927
N      -0.089256   -2.050949   -1.244948
C       0.009700   -2.725133   -0.097999
C       0.107460   -2.105559    1.145776
C       0.101923   -0.717813    1.198248
H       0.904992    1.930859    0.446357
H      -0.098072    1.912079   -1.010128
H      -0.851458    1.918040    0.589934
H      -0.174385   -0.189833   -2.120979
H       0.011066   -3.809918   -0.175323
H       0.185949   -2.700139    2.049506
H       0.176616   -0.202955    2.152181
