19

C      -0.121842    1.559688   -0.042872
C       0.087555    0.059394    0.022813
C       1.121749   -0.606795   -0.943957
C       1.486324   -1.597920    0.202495
C       0.859286   -0.597410    1.229346
C       1.832979    0.263385    1.874583
C       2.648422    0.975947    2.399178
C       0.656058   -1.128405   -2.210696
C       0.244680   -1.571307   -3.250980
H       0.819330    2.097355    0.104158
H      -0.533652    1.843700   -1.017183
H      -0.822629    1.895719    0.728844
H      -0.867065   -0.465349   -0.081424
H       1.956872    0.084608   -1.103912
H       0.897108   -2.514637    0.136314
H       2.540109   -1.845624    0.330943
H       0.213823   -1.053011    1.985359
H       3.364630    1.599690    2.873997
H      -0.109737   -1.959660   -4.173345
