21

C      -0.226428    1.571701    0.022432
C      -0.007092    0.052680   -0.055130
C       0.756432   -0.380283   -1.323005
C       2.277637   -0.251284   -1.143004
C       2.694202   -0.724717    0.247533
C       1.740487   -1.640984    1.075803
O       2.395982   -1.165934    2.310524
C       2.171207    0.042138    1.489813
C       0.730866   -0.458272    1.185713
H       0.723250    2.117231   -0.012850
H      -0.841904    1.921725   -0.812627
H      -0.731717    1.852752    0.952598
H      -0.996171   -0.422807   -0.076401
H       0.524354   -1.433847   -1.521642
H       0.413159    0.183791   -2.196915
H       2.794395   -0.836215   -1.911755
H       2.606227    0.787039   -1.281531
H       3.745587   -1.006897    0.336467
H       1.552937   -2.712901    0.992595
H       2.503323    0.996978    1.901217
H       0.107900   -0.507683    2.082291
