15

C       0.319857    1.385405   -0.178364
C       0.135516   -0.090207   -0.140251
C      -0.051417   -0.965137   -1.147553
C      -0.130961   -0.729986   -2.600377
O      -0.032496    0.355487   -3.130317
C      -0.182282   -2.331749   -0.580298
O      -0.357114   -3.375201   -1.141816
O      -0.066737   -2.232004    0.785509
C       0.133290   -0.870891    1.146399
H       1.277320    1.660585    0.281366
H       0.289763    1.754415   -1.202269
H      -0.460896    1.881030    0.412042
H      -0.293171   -1.652104   -3.191879
H       1.083196   -0.771607    1.687969
H      -0.671464   -0.548808    1.820264
