20

C      -0.056538    1.543493    0.021125
C      -0.018912    0.050749   -0.035214
C      -0.072360   -0.766895   -1.119580
N       0.100440   -2.100491   -0.838315
C       0.092336   -2.279761    0.624220
C      -1.194145   -2.967204    1.098849
C       1.342894   -3.015440    1.113207
C       0.105095   -0.810754    1.133393
O       0.205537   -0.505019    2.307237
H       0.880095    1.951935    0.418416
H      -0.223669    1.980057   -0.967948
H      -0.852829    1.890147    0.688798
H      -0.199309   -0.464882   -2.153857
H      -0.372451   -2.783153   -1.412315
H      -1.227725   -4.012480    0.771404
H      -1.232173   -2.944448    2.191449
H      -2.079935   -2.450436    0.716561
H       2.245966   -2.559161    0.699307
H       1.390829   -2.950243    2.203666
H       1.323019   -4.069923    0.819088
