12

O       0.098864    1.363172   -0.119515
C       0.067903    0.006926   -0.023941
C       0.006511   -0.729246   -1.213227
N      -0.028414   -2.057651   -1.247736
C      -0.003368   -2.717582   -0.084627
C       0.057157   -2.076845    1.147922
C       0.093672   -0.686503    1.182913
H       0.140301    1.745392    0.763458
H      -0.014049   -0.197286   -2.161225
H      -0.033010   -3.801984   -0.144303
H       0.075575   -2.652412    2.066914
H       0.141195   -0.150942    2.127775
