20

C      -0.051996    1.497430    0.035649
C       0.005315   -0.021498   -0.002443
C      -1.362915   -0.731146   -0.084796
C      -1.132268   -2.132925    0.516117
C      -0.102986   -1.890463    1.640296
C       0.806093   -0.806362    1.082723
O       1.706966   -1.321222    0.037635
C       1.042043   -0.616407   -0.941984
N       1.260735   -0.523050   -2.173830
H       0.945013    1.934960    0.144486
H      -0.482059    1.882669   -0.893899
H      -0.673702    1.843957    0.868151
H      -2.083911   -0.172121    0.524734
H      -1.746424   -0.758184   -1.108030
H      -2.053771   -2.595668    0.877211
H      -0.706734   -2.801619   -0.239121
H      -0.599708   -1.498937    2.537054
H       0.452611   -2.785559    1.933010
H       1.379391   -0.240983    1.819968
H       2.073465   -1.076083   -2.452117
