18

O      -0.021602   -0.063636   -0.040763
C      -0.016769    1.151013    0.004454
N      -1.147322    1.921881    0.066484
C      -1.056224    3.355870    0.117454
C       0.057875    4.029106   -0.652988
C       1.095323    3.047304   -1.173484
C       1.223529    2.040184    0.000834
C       1.167161    2.956672    1.252489
C       0.102907    3.972226    0.868863
H      -2.041748    1.457959    0.075977
H      -2.021475    3.843662    0.164208
H      -0.143145    4.948393   -1.190473
H       0.799595    2.558812   -2.107623
H       2.051064    3.554117   -1.346385
H       2.108500    1.407639   -0.049001
H       0.926102    2.399236    2.163450
H       2.132560    3.451310    1.405894
H      -0.064004    4.848425    1.484334
