17

O      -0.180932    0.052798   -0.429815
C      -0.006435    1.232818   -0.269133
C       1.350809    1.884443   -0.093086
C       1.515025    3.015004   -1.144874
O       1.011388    4.179286   -0.528518
C       1.501863    4.169499    0.803952
C       1.486930    2.689900    1.246465
C       0.416036    2.369888    2.281134
O      -0.229276    3.193440    2.874986
H      -0.859059    1.950529   -0.268175
H       2.111036    1.107809   -0.191427
H       2.579735    3.121406   -1.407514
H       0.947908    2.843680   -2.064520
H       2.524023    4.573246    0.843036
H       0.845528    4.786307    1.419732
H       2.433515    2.402772    1.721855
H       0.283107    1.283920    2.484651
