16

C      -0.109866   -1.255481   -0.048290
C      -0.055381   -0.055309    0.002233
C       0.027555    1.389093    0.040998
C      -0.221129    2.120930    1.388492
O       0.822203    1.765451    2.287151
C       1.083987    2.797891    1.321647
C       1.433044    2.081448    0.030746
C       2.717356    1.562243   -0.464401
N       2.055495    2.718700   -1.115831
H      -0.161513   -2.315781   -0.074868
H      -0.598209    1.839022   -0.740058
H      -1.172361    2.431020    1.803562
H       1.409534    3.766382    1.679860
H       3.642032    1.796324    0.054913
H       2.700701    0.598787   -0.966959
H       1.601304    2.426217   -1.978090
