16

O       0.057777    1.444600    0.251878
C       0.063568    0.044299    0.058607
C       0.498065   -0.629224    1.399747
N      -0.732025   -0.773761    2.229153
C      -1.679991   -0.692870    1.393775
N      -3.047996   -0.462627    1.506384
C      -3.367582    0.245104    0.333623
N      -2.481914    0.282397   -0.593372
C      -1.365410   -0.519327   -0.067892
H      -0.551866    1.818102   -0.395509
H       0.714100   -0.240437   -0.779693
H       0.961028   -1.607404    1.215287
H       1.223066   -0.005431    1.928851
H      -3.484242   -0.248753    2.391089
H      -4.344493    0.712219    0.257590
H      -1.337537   -1.483113   -0.596696
