21

C       0.517150    1.483152   -0.538466
C       0.093134    0.108677   -0.024514
C       0.448724   -1.084662   -0.966963
C       1.384274   -1.663477    0.132397
C       2.846647   -1.326474   -0.005127
C       3.248103   -0.419078    0.885216
C       2.131386    0.028252    1.808655
O       2.095018    1.425901    2.067177
C       0.872574   -0.598250    1.151787
H       1.579359    1.508738   -0.807485
H      -0.043413    1.724393   -1.449173
H       0.313399    2.272630    0.191623
H      -0.976266    0.149744    0.201891
H      -0.403244   -1.728412   -1.200337
H       0.939821   -0.809464   -1.905758
H       1.226590   -2.719316    0.375449
H       3.480750   -1.792676   -0.753323
H       4.256590   -0.033251    0.993399
H       2.273316   -0.410015    2.806097
H       2.139917    1.882419    1.222350
H       0.178739   -0.971786    1.906580
