20

O       0.017190    1.330774   -0.009573
N       0.060750   -0.068039   -0.027905
C      -1.085198   -0.624541    0.010006
C      -2.431528    0.047812    0.046077
C      -3.342710   -0.504809   -1.070668
C      -3.395146   -2.038453   -1.050491
C      -1.988743   -2.643628   -1.146826
C      -1.078570   -2.140996   -0.011698
O       0.212035   -2.686992   -0.136612
H       0.950003    1.565308   -0.055080
H      -2.894351   -0.162816    1.020363
H      -2.314173    1.129125   -0.030840
H      -4.346492   -0.080631   -0.962682
H      -2.959759   -0.167218   -2.042037
H      -3.877986   -2.375172   -0.122488
H      -4.018201   -2.404385   -1.873425
H      -2.022110   -3.736936   -1.107538
H      -1.520872   -2.370197   -2.100916
H      -1.523735   -2.473302    0.944758
H       0.824440   -1.938110   -0.111296
