18

O      -0.030716    0.013131    0.029538
C       0.002965    1.213283   -0.016050
N      -0.995441    2.173524   -0.032314
C      -0.094305    3.325325   -0.005823
C       0.388508    3.857563    1.388825
C      -0.185937    3.178455    2.660167
C       0.977539    2.135295    2.631589
C       1.564260    2.826229    1.367771
C       1.091916    2.311246   -0.037030
H      -1.980287    2.086459    0.177486
H      -0.275486    4.064297   -0.787789
H       0.557923    4.934550    1.421340
H      -0.166934    3.829474    3.537016
H      -1.194115    2.767902    2.561309
H       1.637294    2.196571    3.500057
H       0.682726    1.092130    2.499927
H       2.609489    3.132246    1.406107
H       1.828541    2.271536   -0.837281
