16

C      -0.025567    1.441634   -0.004296
N      -0.017872   -0.005064    0.030669
N      -0.020035   -0.697175   -1.102917
C      -0.018297   -1.989778   -0.759107
C      -0.015633   -2.144858    0.642115
N      -0.070457   -3.281531    1.403583
C      -0.008866   -0.830497    1.138875
C       0.053027   -0.421809    2.512398
O       0.086746   -1.214181    3.446307
H       0.867138    1.852243    0.478678
H      -0.035532    1.734607   -1.053422
H      -0.914382    1.842185    0.493619
H      -0.022135   -2.751368   -1.524074
H       0.302107   -4.126224    1.001125
H       0.130719   -3.130848    2.383644
H       0.080633    0.671834    2.702835
