16

C      -0.060213    1.560513   -0.004721
C       0.097796    0.057114    0.039122
O       1.156949   -0.456062   -0.825157
C       1.706881   -1.208289    0.247770
C       2.211734   -0.317675    1.327234
C       0.718492   -0.638170    1.267310
C      -0.008363   -1.235617    2.328985
C      -0.648210   -1.725762    3.223533
H       0.854070    2.072919    0.305451
H      -0.305634    1.882639   -1.021592
H      -0.876402    1.867629    0.657392
H      -0.841926   -0.441011   -0.227303
H       2.025476   -2.226030    0.055411
H       2.721740   -0.810977    2.147809
H       2.573914    0.675426    1.079393
H      -1.207862   -2.163239    4.012476
