17

N      -0.072151    1.305971   -0.090059
C      -0.101299   -0.045922   -0.056114
N      -1.131673   -0.809065   -0.107863
C      -0.705474   -2.224929   -0.089188
C      -1.347076   -2.929079   -1.290003
O      -2.747118   -2.774963   -1.282537
C       0.835935   -2.253273   -0.080032
C       1.211998   -0.785161    0.026093
O       2.292935   -0.266486    0.155184
H       0.805172    1.742605    0.144707
H      -0.920916    1.825855    0.055150
H      -1.115850   -2.682315    0.819589
H      -0.895614   -2.528244   -2.215316
H      -1.135677   -4.003842   -1.256175
H      -2.900616   -1.840963   -1.086957
H       1.269912   -2.824327    0.744586
H       1.254951   -2.659354   -1.008560
