23

C       0.224926    0.712326    0.618674
O       0.106232   -0.493748   -0.096241
C       0.555679   -0.421557   -1.447222
C       2.091073   -0.508184   -1.548014
C       2.366333   -2.012302   -1.423859
C       1.269964   -2.648404   -2.302189
C       0.943439   -4.089861   -1.944399
O       2.113168   -4.872430   -2.142217
C       0.049407   -1.696230   -2.160887
H       1.269275    1.035552    0.742988
H      -0.327783    1.529916    0.128179
H      -0.203566    0.543888    1.610197
H       0.158602    0.497355   -1.903833
H       2.407792   -0.142430   -2.533315
H       2.601406    0.101016   -0.796862
H       3.373318   -2.304848   -1.727163
H       2.229660   -2.321568   -0.380750
H       1.615494   -2.641439   -3.343470
H       0.605535   -4.134747   -0.895353
H       0.112955   -4.452766   -2.572246
H       1.916592   -5.777804   -1.885274
H      -0.742515   -2.134960   -1.546208
H      -0.388547   -1.458165   -3.133728
