15

O       0.051452    0.368311   -1.017042
C      -0.017050    1.245121   -0.192415
C      -1.343204    1.899057    0.192107
C      -1.225031    2.791474    1.431013
N      -0.082163    3.681937    1.296542
C       1.155831    3.266022    0.892255
O       2.120247    4.000501    0.837040
C       1.216119    1.783007    0.526930
H      -1.654009    2.503893   -0.668892
H      -2.096840    1.117595    0.323615
H      -2.124051    3.401751    1.544610
H      -1.144422    2.173438    2.338001
H      -0.140892    4.635225    1.620434
H       1.300383    1.219585    1.469299
H       2.115649    1.582971   -0.054400
