15

O      -0.526501    0.572229    0.758737
C      -0.086668    1.174189   -0.184935
C       1.348452    1.667472   -0.282717
N       1.412150    2.825907   -1.161866
C       1.414237    4.140577   -0.539640
C       2.658440    3.613603   -1.193013
C       3.796844    3.250214   -0.394731
C       4.768448    2.931947    0.238877
H      -0.703190    1.402556   -1.082364
H       1.745445    1.827550    0.729321
H       1.936802    0.857448   -0.736852
H       0.830512    4.907935   -1.040079
H       1.422341    4.194488    0.547219
H       2.903415    3.978792   -2.187806
H       5.624225    2.660023    0.806182
