22

C      -0.023789    1.478960   -0.013927
C      -0.021880   -0.042836   -0.007614
C      -1.360494   -0.686251    0.511651
C      -0.568253   -1.395403    1.622667
C       0.690208   -0.662781    1.229627
N       0.626413   -2.100194    1.194983
C       0.811488   -2.831459   -0.059819
C       0.319717   -2.159127   -1.358205
C       0.503114   -0.635134   -1.323193
H       0.978354    1.871471   -0.224564
H      -0.702778    1.870364   -0.780088
H      -0.341307    1.880952    0.954552
H      -2.013605    0.079582    0.940101
H      -1.953926   -1.298916   -0.171310
H      -0.949757   -1.623874    2.612524
H       1.442821   -0.169133    1.838651
H       1.893520   -3.000583   -0.133999
H       0.349855   -3.818107    0.055566
H       0.863306   -2.590599   -2.206159
H      -0.736142   -2.393633   -1.525712
H      -0.012305   -0.179325   -2.177969
H       1.566461   -0.375944   -1.426081
