19

C       0.119641    1.496514   -0.026889
C      -0.052346   -0.035191    0.019064
C      -1.543561   -0.403096   -0.004873
C       0.700456   -0.673108   -1.136899
C       1.861966   -1.247607   -0.791828
C       2.055409   -1.079059    0.659334
O       3.060522   -1.182482    1.329210
C       0.703279   -0.644050    1.236078
O       0.853190    0.194742    2.348081
H       1.174969    1.779224    0.005757
H      -0.317503    1.904711   -0.944033
H      -0.376601    1.954130    0.832156
H      -2.031362   -0.008987   -0.903204
H      -1.687366   -1.488399    0.008607
H      -2.055161    0.017541    0.866427
H       0.310639   -0.618921   -2.149719
H       2.590333   -1.704034   -1.449525
H       0.178168   -1.573888    1.521537
H       1.749781    0.026879    2.676436
