19

C      -0.051950    1.607575    0.206489
C       1.474528    1.402700    0.039104
C       1.711268    0.437107    1.232448
O       0.561639   -0.456644    1.120376
C      -0.032224    0.067701   -0.059826
C      -1.152399   -0.606763   -0.821665
C      -0.836868   -0.083113   -2.223104
C       0.377520    0.477163   -2.326699
C       1.147557    0.319913   -1.042015
H      -0.421625    1.919542    1.186292
H      -0.507004    2.189951   -0.592074
H       2.192009    2.215003   -0.081150
H       2.636189   -0.145595    1.148049
H       1.691467    0.945248    2.202565
H      -1.085629   -1.701913   -0.772907
H      -2.153227   -0.323407   -0.477704
H      -1.549448   -0.166587   -3.037408
H       0.786120    0.891559   -3.242190
H       1.900488   -0.474472   -1.126484
