17

O       0.512178    1.404602    0.777166
C      -0.158854    0.302204    0.185501
C       0.553636   -1.044425    0.468424
N      -0.144047   -1.666617    1.600867
C      -1.263669   -1.069578    1.747769
C      -1.558683    0.068973    0.797689
N      -2.140805   -1.498805    2.739926
C      -3.395594   -1.017576    3.028209
O      -3.958781   -0.112139    2.460619
H       0.629506    1.214982    1.714973
H      -0.205031    0.538886   -0.879360
H       0.510369   -1.721593   -0.394950
H       1.611839   -0.885664    0.700474
H      -1.960831    0.959091    1.282041
H      -2.298747   -0.247593    0.054132
H      -1.798087   -2.279316    3.284180
H      -3.845471   -1.577259    3.870437
