16

C      -0.005994    1.514631    0.178371
C       0.047447    0.029677   -0.085388
C       0.663718   -0.659160   -1.234060
C       1.952206   -0.007253   -1.751776
C       1.916493    1.247720   -2.482927
N       1.903678    2.258186   -3.044913
C       2.399163   -0.041148   -0.264506
N       3.378430    0.324690    0.423242
N       1.262328   -0.812646    0.172748
H       0.839522    2.063506   -0.237992
H      -0.921368    1.929002   -0.255235
H      -0.028323    1.695378    1.257387
H      -0.819391   -0.503877    0.299101
H       0.202156   -1.505721   -1.728586
H       2.547373   -0.735442   -2.312371
H       4.062689    0.837360   -0.134307
