13

C      -0.010243    1.492693    0.122871
O       1.275117    2.015795   -0.343254
C       2.268254    1.222139   -0.766716
N       2.312638   -0.056496   -0.851330
C       1.129775   -0.631613   -0.427300
C       0.008908    0.005352    0.036941
N      -0.935588   -0.912156    0.351301
N      -0.453628   -2.104874    0.103185
N       0.804429   -1.940809   -0.371495
H      -0.144260    1.865326    1.144575
H      -0.779092    1.952632   -0.508018
H       3.123654    1.822472   -1.063616
H       1.356549   -2.744718   -0.626069
