18

C       0.057493    1.424635   -0.021037
N       0.202322   -0.020745   -0.032372
C      -0.039588   -0.719705    1.216930
C       0.000869   -0.706177   -1.192783
N      -0.266723   -1.998646   -1.230742
O      -0.305751   -2.262322   -2.622366
C      -0.085523   -1.101888   -3.239991
C      -0.084520   -1.088735   -4.726908
N       0.107469   -0.103226   -2.433569
H       0.718319    1.847201    0.742652
H       0.336174    1.823893   -0.995173
H      -0.973423    1.738044    0.206058
H      -1.109830   -0.774396    1.467476
H       0.344865   -1.738480    1.145951
H       0.480082   -0.194622    2.023413
H       0.685408   -1.761643   -5.116137
H      -1.048638   -1.430417   -5.115337
H       0.109137   -0.075974   -5.079284
