17

O      -0.220941    1.259278   -0.172089
C      -0.052013   -0.110710   -0.113223
C       0.628473   -0.945455   -1.269498
C      -0.107794   -2.098227   -0.573948
C       0.566750   -2.787575    0.369171
C       0.288885   -2.191496    1.747853
C      -0.352305   -0.863522    1.303636
C      -1.129339   -1.125370    0.077781
O      -2.501259   -1.113126   -0.037964
H       0.585314    1.681129    0.144939
H       0.230342   -0.589794   -2.227229
H       1.718932   -1.020975   -1.319011
H       1.514303   -3.282416    0.171294
H      -0.376031   -2.747452    2.424853
H       1.248297   -2.081612    2.269367
H      -0.738119   -0.148066    2.027192
H      -2.729700   -0.990672   -0.966517
