11

O       0.088493    1.309847    0.114046
C       0.067510   -0.029124    0.059432
N       0.088302   -0.589462   -1.153522
C       0.067071   -1.921343   -1.188816
C       0.025769   -2.666315   -0.021582
F       0.004519   -3.999234   -0.056996
C       0.007198   -1.981995    1.186142
N       0.028025   -0.652696    1.235905
H       0.116393    1.620727   -0.800502
H       0.083115   -2.406971   -2.161071
H      -0.025157   -2.524249    2.128044
