19

C      -0.077588    1.491676   -0.121344
C      -0.240893   -0.003257   -0.374471
N      -1.311051   -0.557738    0.469196
C      -1.634904   -1.894958    0.273113
C      -2.823123   -2.474209   -0.068672
N      -4.048822   -1.816209   -0.234668
C      -2.585220   -3.888998   -0.130735
C      -1.273389   -4.062056    0.179533
O      -0.670584   -2.881161    0.439835
H       0.703792    1.909310   -0.762965
H      -1.013022    2.024208   -0.317010
H       0.210084    1.686913    0.918531
H      -0.524757   -0.183732   -1.417259
H       0.718775   -0.518200   -0.214175
H      -1.140196   -0.334774    1.446126
H      -3.907122   -0.814300   -0.296794
H      -4.563212   -2.139409   -1.044661
H      -3.301181   -4.661729   -0.364633
H      -0.648519   -4.937981    0.249692
