18

O       0.002796    0.014514   -0.162756
C      -0.031078    1.203738   -0.040365
C      -1.156506    2.214245    0.257020
C      -0.044331    3.238964    0.636730
C       1.040919    2.300672    0.030329
C       2.463798    2.139604    0.658220
C       3.068848    2.640380   -0.659703
N       2.628007    1.683897   -1.701284
C       1.721239    2.771947   -1.273455
H      -1.713804    2.485187   -0.645513
H      -1.870172    1.919850    1.030182
H      -0.122179    4.228763    0.181949
H       0.064968    3.356355    1.717665
H       2.607770    2.827464    1.495103
H       2.748170    1.125651    0.948489
H       3.959717    3.240079   -0.797723
H       3.048646    1.978542   -2.582788
H       1.325988    3.491133   -1.981524
