17

C       0.042996    1.444891    0.078227
C      -0.087852   -0.038934    0.033283
C      -0.147114   -0.888923   -1.011272
C      -0.081175   -2.278414   -0.382745
O      -0.162740   -3.428202   -1.145242
C      -1.008782   -2.098189    0.847531
C      -0.011590   -0.963521    1.244366
C       1.087305   -1.940799    0.651697
O       2.200733   -2.277890    0.883153
H       0.987824    1.743279    0.550095
H       0.016955    1.874613   -0.927046
H      -0.760574    1.902354    0.667999
H      -0.105311   -0.677345   -2.071667
H       0.577067   -3.442707   -1.761963
H      -2.027170   -1.773853    0.621239
H      -0.991150   -2.955337    1.527748
H       0.039752   -0.542934    2.245080
