15

C       0.152562    1.478312    0.008589
N       0.074521    0.025409    0.001393
C      -1.025210   -0.592536    0.008599
O      -1.079056   -1.952471    0.001720
C       0.186488   -2.605396   -0.013955
C      -0.048893   -4.048382   -0.019305
N      -0.194281   -5.193475   -0.023951
C      -2.437102   -0.058049    0.025105
O      -2.697130    1.116885    0.034232
H       1.206504    1.764854   -0.000211
H      -0.342027    1.918472   -0.863576
H      -0.324686    1.908794    0.895131
H       0.760837   -2.308542   -0.898563
H       0.777853   -2.317835    0.862471
H      -3.216299   -0.846100    0.028331
