13

O      -0.082273   -0.060181   -0.001067
C      -0.016475    1.151357    0.006848
N       1.143115    1.854588    0.003842
C       2.427491    1.208198   -0.011814
C       3.527316    2.254931   -0.019397
O       3.288277    3.444543   -0.012696
C       4.876276    1.732673   -0.035257
C       5.990125    1.277726   -0.048619
H      -0.904559    1.812583    0.017783
H       1.151997    2.864689    0.008270
H       2.567049    0.551884    0.858768
H       2.548516    0.558229   -0.889868
H       6.980097    0.889420   -0.061129
