20

C       0.005535    1.487227    0.097513
C       0.016631   -0.005089   -0.068208
C       1.096393   -0.736600   -0.866205
C       0.626066   -2.166477   -0.538385
C       0.483877   -2.072828    0.989074
N      -0.353721   -0.848843    1.103428
C      -1.204638   -0.861343   -0.114847
C      -0.872998   -2.099207   -0.935525
O      -1.140881   -1.849806   -2.303627
H       0.933473    1.837677    0.563656
H      -0.093387    1.986216   -0.872713
H      -0.827308    1.799827    0.732654
H       1.040447   -0.509465   -1.933216
H       2.107922   -0.525709   -0.503327
H       1.203804   -2.996326   -0.945431
H      -0.037630   -2.924287    1.438291
H       1.434174   -1.928754    1.512186
H      -2.214863   -0.479163   -0.029731
H      -1.421467   -2.987187   -0.587305
H      -0.943713   -2.652075   -2.797078
