18

C      -0.414472    1.479919   -0.012012
C       0.015272   -0.000895    0.030924
N       0.764996   -0.419594   -1.154276
C       1.985320    0.020742   -1.607742
O       2.315978   -0.154371   -2.772526
C       2.932773    0.656130   -0.659347
C       2.969472    0.577287    0.682412
C       2.016925   -0.056049    1.581891
C       0.734025   -0.333747    1.318817
H       0.456093    2.138939    0.025051
H      -0.969874    1.687077   -0.931910
H      -1.058237    1.713462    0.841852
H      -0.895379   -0.607709    0.006051
H       0.224770   -0.832992   -1.901415
H       3.751548    1.138728   -1.182384
H       3.836108    1.017058    1.172282
H       2.398360   -0.292541    2.572206
H       0.131052   -0.794440    2.096516
