16

C      -0.652950   -0.998469   -0.761764
C      -0.278305    0.057644   -0.325005
C       0.186253    1.316417    0.216445
C       0.074230    1.546683    1.765770
C       1.473584    2.159374    1.707147
C       1.936761    3.438502    2.247075
O       2.396214    2.182530    2.773403
C       1.734763    1.551949    0.328800
H      -0.986546   -1.928338   -1.150722
H      -0.279310    2.149791   -0.318492
H      -0.751145    2.167045    2.120365
H       0.076757    0.598031    2.308366
H       2.684741    4.017764    1.706786
H       1.292569    4.013347    2.911529
H       2.274808    0.605001    0.406246
H       2.201953    2.176409   -0.435146
