15

C      -0.085618    1.599971   -0.054854
C       0.099100    0.076352    0.016866
N      -1.171271   -0.607112    0.197988
C      -1.835299   -0.964843   -0.837105
N      -1.534970   -0.855431   -2.168637
C      -3.141124   -1.652615   -0.568851
O      -3.894975   -2.003423   -1.445116
H       0.884286    2.102637   -0.119481
H      -0.680270    1.891129   -0.927273
H      -0.605556    1.960116    0.836972
H       0.642413   -0.277892   -0.874585
H       0.728405   -0.161968    0.881207
H      -0.874517   -0.168339   -2.485913
H      -2.290950   -1.090457   -2.795183
H      -3.342784   -1.796526    0.508601
