21

C      -0.014145    1.498518    0.010746
C       0.045086   -0.015820    0.016498
C      -1.286124   -0.771698    0.377618
C      -0.484178   -1.655446    1.327040
C       0.733108   -0.741666    1.213546
C       0.806955   -2.133842    0.673064
O       1.562615   -3.054972    1.400555
C       0.903113   -2.138210   -0.854342
C       0.676732   -0.653250   -1.238127
H       0.984896    1.933294   -0.110528
H      -0.637686    1.862812   -0.814296
H      -0.437300    1.885264    0.943770
H      -1.976621   -0.120297    0.921610
H      -1.828925   -1.249968   -0.447152
H      -0.851100   -2.165150    2.211390
H       1.382876   -0.332130    1.975884
H       1.118426   -3.908413    1.352721
H       1.892538   -2.495538   -1.153654
H       0.163317   -2.804416   -1.313668
H       0.043050   -0.529577   -2.122981
H       1.636165   -0.167018   -1.450186
