20

C      -0.167069    1.688387   -0.417096
C       0.056496    0.211077   -0.156001
C      -1.080862   -0.545057    0.513755
C      -1.506641   -0.003441    1.877392
O      -2.557881   -0.835724    2.337921
C       0.924031   -0.564797   -1.115073
N       1.437484   -0.153567    0.170256
C       1.888585   -1.027690    1.139649
O       2.511772   -2.039525    0.924678
H       0.676575    2.112362   -0.966513
H      -1.078456    1.839631   -1.005334
H      -0.271705    2.249552    0.516594
H      -1.956053   -0.522604   -0.146963
H      -0.804229   -1.598034    0.635168
H      -0.651404   -0.015610    2.572462
H      -1.838615    1.042178    1.787408
H      -2.846008   -0.513811    3.196937
H       0.729373   -1.626292   -1.246947
H       1.346366   -0.061762   -1.981208
H       1.681009   -0.652819    2.160525
