15

N       0.173708    1.429725   -0.011773
C       0.018871    0.030009   -0.020937
C      -1.071670   -0.807896   -0.018665
O      -2.354693   -0.350023   -0.005327
C      -0.598768   -2.163771   -0.032374
C      -1.378150   -3.382585   -0.035309
O      -0.932725   -4.512433   -0.047146
C       0.794471   -2.092062   -0.042710
N       1.142523   -0.791243   -0.035776
H      -0.248903    1.849188    0.810516
H      -0.261356    1.861261   -0.821221
H      -2.957995   -1.099198   -0.005930
H      -2.487011   -3.225957   -0.025527
H       1.515850   -2.891845   -0.054243
H       2.078173   -0.419534   -0.040265
