19

C      -0.161467    1.514247   -0.006467
C       0.095079    0.028204    0.013919
C      -0.769751   -0.896867    0.876187
O      -1.255308   -2.128036    0.429765
C       0.677786   -0.774339    1.185608
C       1.604382   -1.862291    0.634707
C       1.359830   -1.908945   -0.886470
C       0.640608   -0.603942   -1.235785
O       0.557862   -0.116193   -2.338023
H       0.772022    2.077422   -0.110173
H      -0.795972    1.775332   -0.858863
H      -0.655552    1.847885    0.911010
H      -1.453529   -0.356438    1.532024
H      -2.002600   -1.964351   -0.155739
H       0.964779   -0.274047    2.104633
H       2.641029   -1.582730    0.846197
H       1.421170   -2.826508    1.116496
H       2.274332   -1.994594   -1.477889
H       0.704201   -2.738225   -1.167812
