19

C      -0.010128    1.481930   -0.006335
C       0.018165   -0.016688    0.001051
C       0.474266   -1.016164   -1.032405
C       1.238896   -0.878428    0.269917
C       0.806420   -2.035411    1.184663
C       0.155399   -2.969104    0.403166
C      -0.543002   -2.072638   -0.580813
C      -1.070680   -0.963659    0.565149
C      -0.441633   -1.489328    1.943555
H       0.907641    1.887429   -0.446360
H      -0.856691    1.869728   -0.584859
H      -0.092128    1.883974    1.010926
H       0.878313   -0.872291   -2.026414
H       2.227273   -0.437766    0.306591
H      -0.403822   -3.784251    0.862416
H      -1.271378   -2.472854   -1.284615
H      -2.102257   -0.598352    0.552936
H      -1.041292   -2.252278    2.443448
H      -0.253745   -0.657642    2.631896
