21

C      -0.061220    1.552459   -0.074767
C       0.126533    0.044573   -0.096109
O       1.227429   -0.458390   -0.121927
C      -1.147952   -0.791053   -0.078984
C      -0.922009   -2.305665   -0.135044
C      -2.231098   -3.123594    0.043334
C      -2.090974   -4.355170   -0.886578
C      -1.024038   -3.918562   -1.863102
C      -0.390528   -2.820092   -1.457562
H       0.910576    2.046918   -0.052706
H      -0.617986    1.877126   -0.961249
H      -0.651221    1.855118    0.797434
H      -1.704455   -0.520863    0.830585
H      -1.786792   -0.463432   -0.911687
H      -0.199087   -2.553965    0.654305
H      -2.418777   -3.393666    1.086069
H      -3.080842   -2.516251   -0.289765
H      -1.765321   -5.248092   -0.334060
H      -3.036202   -4.625362   -1.371148
H      -0.787824   -4.481468   -2.759857
H       0.445375   -2.347616   -1.958847
