22

C       0.162461    1.605226   -0.029817
C      -0.009750    0.079995    0.012398
C       0.671531   -0.573008   -1.211552
C       0.077559   -1.918898   -1.636568
O      -0.284343   -2.763595   -0.539135
C       0.631268   -2.869073    0.491379
N       1.610413   -3.668642    0.500423
C       0.291057   -1.959705    1.640152
C       0.559306   -0.470136    1.337085
H       1.223786    1.880979   -0.013700
H      -0.276523    2.029292   -0.938785
H      -0.316942    2.084189    0.830116
H      -1.084825   -0.144361   -0.026084
H       0.605741    0.092872   -2.080536
H       1.742296   -0.689359   -1.000685
H      -0.858666   -1.771595   -2.183238
H       0.775424   -2.444468   -2.304192
H       1.641197   -4.195043   -0.376456
H      -0.774848   -2.097061    1.857739
H       0.864016   -2.265908    2.517979
H       1.644098   -0.299146    1.340420
H       0.154003    0.116335    2.169686
