19

C       0.573378    1.326713    0.405829
O       1.419936    0.181354    0.227524
C       0.005724    0.000552    0.150482
C      -0.660450   -0.828971    1.232702
C      -0.196997   -2.317225    1.232867
C       0.469085   -2.509501    2.586605
C       1.663199   -1.627687    2.916064
C       0.274912   -1.228780    3.334360
O      -0.404475   -0.292463    2.532563
H       0.539892    1.716190    1.419159
H       0.617246    2.061564   -0.396276
H      -0.358425   -0.223994   -0.854522
H      -1.743709   -0.762380    1.054416
H      -1.056463   -2.986770    1.137576
H       0.477019   -2.520673    0.395341
H       0.374574   -3.472060    3.074967
H       2.339805   -1.982352    3.686752
H       2.118652   -1.059139    2.113043
H      -0.017508   -1.166979    4.376408
