21

O       0.088380    1.430943   -0.156234
C       0.047171    0.027930   -0.024306
C       0.371438   -0.614553    1.357387
C      -0.927307   -1.468797    1.238006
C      -2.018463   -1.382983    2.327963
C      -2.950782   -0.245799    1.917299
C      -2.370870    1.132889    1.758186
C      -2.541490    0.258410    0.539816
C      -1.381563   -0.582683    0.028025
H       1.011596    1.700290   -0.195633
H       0.634918   -0.452325   -0.820242
H       1.312558   -1.167279    1.427136
H       0.338274    0.113661    2.171766
H      -0.702320   -2.504494    0.974942
H      -2.586410   -2.319644    2.363445
H      -1.586662   -1.237691    3.325811
H      -3.998341   -0.329615    2.187221
H      -3.054979    1.970720    1.846478
H      -1.376129    1.351175    2.123726
H      -3.291369    0.561704   -0.181988
H      -1.679992   -1.104753   -0.884806
