23

C      -0.131426    1.522931    0.134583
C       0.080567    0.013575    0.040445
C       0.806378   -0.464730   -1.228501
C       1.188966   -1.913995   -0.895773
C       1.566059   -1.896283    0.613613
C       0.943971   -0.580088    1.175137
C       1.083706   -3.132034    1.333020
C       1.925018   -4.320028    1.522354
O       1.673135   -3.419861    2.603756
H       0.827394    2.054104    0.105257
H      -0.743578    1.893897   -0.694552
H      -0.634478    1.798613    1.067626
H      -0.903318   -0.477508    0.062873
H       0.196274   -0.377505   -2.133037
H       1.709555    0.141068   -1.384682
H       0.319565   -2.565928   -1.052329
H       1.994542   -2.307713   -1.521442
H       2.654150   -1.861374    0.727982
H       1.741365    0.125479    1.434926
H       0.371477   -0.753101    2.091537
H       0.000796   -3.283001    1.310465
H       1.468994   -5.304922    1.615744
H       2.946517   -4.318050    1.142767
