22

C      -0.178671    1.597773    0.057152
C       0.015013    0.098974   -0.021989
C       0.595875   -0.599665   -1.212307
C       1.110235    0.100881   -2.456526
C       2.497512   -0.406029   -2.881303
O       3.555012    0.120361   -2.101947
C       3.642351   -0.349711   -0.768044
C       2.562059    0.209389    0.161237
N       1.323387   -0.560695    0.060852
H       0.507439    2.164233   -0.574987
H      -1.198010    1.852415   -0.252162
H      -0.050240    1.949499    1.087029
H      -0.750773   -0.444899    0.532596
H       0.212296   -1.597782   -1.431359
H       0.401855   -0.084167   -3.274246
H       1.173021    1.185902   -2.333958
H       2.516570   -1.509152   -2.863669
H       2.710289   -0.085472   -3.906457
H       3.614699   -1.450676   -0.737891
H       4.625328   -0.023111   -0.413442
H       2.911810    0.126031    1.198590
H       2.456526    1.282129   -0.054572
