21

C       0.301700    1.343087   -0.521029
C       1.428443    1.978242    0.333229
C       2.060438    0.817261    1.088383
C       2.462477   -0.392775    0.287125
C       3.295485   -1.476282    0.977145
C       2.384466   -1.993823    2.074283
C       1.185436   -1.405914    2.047066
C       1.102675   -0.367251    0.987416
C      -0.145561    0.081505    0.254524
H      -0.522067    2.037348   -0.706592
H       0.693184    1.052898   -1.501359
H       2.140991    2.539763   -0.281957
H       1.005601    2.684171    1.058038
H       2.576093    1.017144    2.023311
H       2.539921   -0.295487   -0.790949
H       3.570195   -2.275379    0.275401
H       4.240647   -1.087530    1.379885
H       2.706382   -2.731462    2.800614
H       0.367215   -1.612280    2.728786
H      -0.926054    0.332030    0.985397
H      -0.562250   -0.684702   -0.408930
