17

O      -0.172945    1.558043   -0.089896
C      -0.077358    0.165741   -0.034117
C      -1.311861   -0.636658    0.120982
C      -0.519586   -0.738418   -1.186143
C      -1.357518   -0.105444   -2.253721
O      -1.166452   -0.196306   -3.440971
C      -2.520020    0.638661   -1.585688
C      -2.654421    0.029689   -0.176759
O      -3.611037   -1.023568   -0.136710
H       0.548187    1.887961   -0.637085
H       0.799152   -0.202177    0.498433
H      -1.336348   -1.448970    0.837505
H       0.106961   -1.577530   -1.460681
H      -2.264151    1.701330   -1.539622
H      -3.432396    0.527813   -2.176997
H      -2.891236    0.792810    0.576885
H      -4.477026   -0.643401   -0.314745
