19

C       0.393457    1.562406   -0.182382
C       0.144617    0.074546    0.013357
C       0.883129   -0.963380   -0.887202
C       1.225430   -1.824732    0.356428
C       2.665202   -1.619491    0.904228
O       3.750959   -1.559987    0.021516
C       2.175489   -0.318996    1.552368
O       2.769208    0.646478    1.949912
C       0.703295   -0.653835    1.283125
H       1.458170    1.806327   -0.129843
H       0.019416    1.884853   -1.160399
H      -0.118940    2.154554    0.583430
H      -0.932040   -0.121397   -0.023970
H       0.259383   -1.451361   -1.638033
H       1.778518   -0.577899   -1.383121
H       0.825744   -2.836107    0.396658
H       2.839205   -2.360666    1.704618
H       4.257109   -0.770813    0.249837
H       0.047438   -0.763987    2.147619
