15

N      -0.135629    1.160257   -0.799425
C      -0.029285    0.077139   -0.162933
N       0.969381   -0.635128    0.515454
C       0.161915   -1.864927    0.644451
C       0.055275   -2.397154    2.001680
N      -0.043995   -2.830816    3.067954
C      -1.024000   -1.020365    0.101289
C      -2.435465   -0.903265    0.516231
N      -2.064637   -1.489672   -0.783637
H       0.740454    1.679442   -0.855780
H       1.962032   -0.612381    0.330430
H       0.439991   -2.668415   -0.046041
H      -2.840602   -1.608618    1.235722
H      -2.855731    0.098008    0.544652
H      -2.187282   -0.812583   -1.535311
