21

C      -0.015835    1.689814    0.024329
C       0.018075    0.161089    0.135097
C      -1.355796   -0.500324   -0.008779
O      -2.269365   -0.050951    0.974350
C      -1.896366   -0.511014   -1.485535
C      -1.492628   -1.989759   -1.544597
O      -1.265316   -2.754628   -2.438689
C      -1.326318   -2.067855   -0.024390
C      -0.192182   -2.889968    0.568042
H       0.993186    2.106189    0.090073
H      -0.448068    2.020244   -0.926594
H      -0.597504    2.140182    0.836665
H       0.688712   -0.243169   -0.633014
H       0.441483   -0.124804    1.104651
H      -2.358356    0.904421    0.894015
H      -2.983784   -0.388988   -1.508753
H      -1.438682    0.150932   -2.224692
H      -2.289427   -2.387954    0.395733
H       0.780963   -2.589357    0.169534
H      -0.160820   -2.797254    1.657894
H      -0.333970   -3.946272    0.321545
