17

C       0.501120   -0.359358    1.185972
C       0.165985    0.503674    0.418362
C      -0.217605    1.544427   -0.545731
N       0.851572    2.440581   -0.990271
C       1.360085    3.329615    0.008821
C       2.368407    2.944310    1.060587
C       2.786041    3.843957   -0.102536
C       3.640689    3.303864   -1.120693
N       4.307839    2.846338   -1.948884
H       0.789715   -1.121922    1.866682
H      -0.643810    1.067877   -1.435959
H      -1.018414    2.160280   -0.117679
H       1.597317    1.919079   -1.438715
H       0.635110    4.087589    0.297015
H       2.317871    3.404705    2.040919
H       2.740502    1.927796    1.046039
H       2.949447    4.895706    0.103429
