17

C      -0.063923    1.411235    0.389211
C      -0.009246    0.055584   -0.282949
O       0.937039   -0.315457   -0.938204
C      -1.227096   -0.833595   -0.086777
C      -1.097761   -2.307812   -0.460893
O      -0.181729   -2.907252    0.468614
C      -1.551073   -2.752869    0.867508
C      -1.635231   -1.308328    1.387850
O      -0.778539   -0.995931    2.448201
H      -0.135406    1.264468    1.472627
H       0.828409    1.987911    0.142834
H      -0.960263    1.961117    0.079740
H      -2.097301   -0.361022   -0.557270
H      -1.198386   -2.784113   -1.427382
H      -2.083116   -3.640279    1.189113
H      -2.638133   -0.979195    1.665636
H       0.047129   -1.468388    2.270564
