19

C       0.070459    1.532275    0.009068
C       0.007782    0.008133   -0.004713
O      -1.339519   -0.469837    0.049444
C       0.707827   -0.626447   -1.226940
N       2.137245   -0.309296   -1.380108
C       1.735719   -1.595349   -0.769148
C       1.728936   -1.604682    0.747048
N       2.116986   -0.322813    1.373520
C       0.692150   -0.645965    1.208042
H       1.112687    1.855962    0.013928
H      -0.416617    1.949688   -0.881402
H      -0.436063    1.928017    0.894759
H      -1.850163    0.023735   -0.600688
H       0.097446   -0.792498   -2.111059
H       2.411541   -0.474458   -2.346190
H       1.937906   -2.520892   -1.297044
H       1.930865   -2.534783    1.266831
H       2.382952   -0.494514    2.340506
H       0.066050   -0.817633    2.077783
