18

C      -0.019147    1.453998   -0.035034
C       1.316658    0.767391    0.040826
C       0.016039   -0.041176    0.093197
C       0.377281   -0.713496   -1.260146
C      -0.341826   -0.297902   -2.511642
C       0.366839    0.581979   -3.224346
C       1.706974    0.927754   -2.603209
C       1.712947    0.105201   -1.293228
H      -0.306170    1.982208    0.868869
H      -0.364710    1.924167   -0.951117
H       2.009942    0.980495    0.846253
H      -0.431131   -0.554576    0.936014
H       0.496997   -1.796027   -1.158985
H      -1.326414   -0.663514   -2.784332
H       0.039013    1.024109   -4.160473
H       2.536405    0.659149   -3.270151
H       1.801380    2.005895   -2.416536
H       2.605983   -0.512492   -1.186734
