17

N      -0.030428    1.502656    0.113977
C       1.266320    0.807299   -0.014212
C       0.014829    0.022519    0.017497
C      -0.388797   -0.572396   -1.288140
C      -0.135317    0.082891   -2.585087
C       1.166197    0.902696   -2.647133
C       1.931621    0.834803   -1.348495
C       1.884454   -0.367251   -2.269398
N       0.605942   -1.181076   -2.245666
H      -0.169761    1.760372    1.088652
H       1.923374    0.780007    0.850775
H      -0.227737   -0.557367    0.902942
H      -1.273390   -1.203813   -1.260784
H      -0.866468    0.097070   -3.387392
H       1.384628    1.627848   -3.418918
H       2.884430    1.354991   -1.400243
H       2.765565   -0.850277   -2.671810
