19

O      -0.004894    1.397857    0.264228
C      -0.037338    0.031316   -0.113592
C      -1.411196   -0.548470   -0.009561
O      -2.357315    0.080556   -0.869982
C      -3.532816   -0.671371   -0.518279
C      -3.066120   -2.131273   -0.716201
C      -1.812589   -1.997371    0.142234
C      -2.138832   -0.978063    1.242737
C      -3.578618   -0.532539    1.019614
H      -0.707454    1.831694   -0.232884
H       0.337938   -0.105725   -1.140409
H       0.639632   -0.501916    0.561087
H      -4.385380   -0.319403   -1.095069
H      -3.786132   -2.860003   -0.333304
H      -2.844908   -2.352758   -1.763834
H      -1.093671   -2.794027    0.279120
H      -1.658810   -0.993294    2.211665
H      -3.757144    0.499527    1.333552
H      -4.323555   -1.187871    1.479827
