22

O      -0.002477    1.406376   -0.011896
N       0.090642    0.000921   -0.015158
C      -1.051858   -0.575002    0.027105
C      -2.380480    0.140133    0.044240
C      -3.050141    0.101459   -1.351159
C      -3.849625   -1.179139   -1.672960
C      -3.319649   -2.506158   -1.090829
C      -1.798241   -2.727639   -1.158012
C      -1.014762   -2.080731    0.004516
H       0.925167    1.662919   -0.010482
H      -3.038692   -0.322592    0.789443
H      -2.218337    1.175340    0.344525
H      -3.723306    0.960622   -1.443601
H      -2.269055    0.255232   -2.103587
H      -4.881516   -1.055086   -1.321981
H      -3.917338   -1.270140   -2.763983
H      -3.633078   -2.599260   -0.042490
H      -3.826253   -3.322462   -1.618482
H      -1.597307   -3.804461   -1.122351
H      -1.399506   -2.374594   -2.117615
H       0.033145   -2.390728   -0.029691
H      -1.435245   -2.459308    0.948063
