19

C      -0.046828    1.494525    0.019555
C      -0.028982   -0.003710   -0.044033
C      -0.067272   -0.717897   -1.177417
C       0.019975   -2.221613   -1.044739
O       1.060604   -2.554200   -0.077950
C       0.106533   -2.282157    0.984324
C       0.078350   -0.773900    1.265021
C      -1.026058   -2.701999    0.004752
O      -2.302476   -2.148599    0.068419
H       0.875234    1.874952    0.477730
H      -0.142114    1.940311   -0.974131
H      -0.873776    1.858443    0.642320
H      -0.147668   -0.251135   -2.154339
H       0.140695   -2.754043   -1.989865
H       0.296251   -2.881532    1.878644
H       0.984269   -0.470393    1.805703
H      -0.769595   -0.532523    1.921246
H      -1.132116   -3.787719   -0.013979
H      -2.217843   -1.213894   -0.162596
