11

N      -0.021739    1.334565   -0.101375
C      -0.015178   -0.020879   -0.037764
N      -1.206780   -0.648728   -0.018854
C      -1.125499   -1.968639   -0.005714
C       0.106921   -2.621347   -0.007906
N       1.246697   -1.930502   -0.008122
N       1.199920   -0.612260   -0.020548
H       0.847145    1.811299    0.069969
H      -0.886019    1.810099    0.091865
H      -2.060946   -2.524243    0.011721
H       0.194619   -3.701487    0.000867
