17

C      -0.069911    1.598850    0.086087
C       1.461986    1.398789    0.030814
O       1.268985    0.147475    0.755860
C       0.001813    0.055352    0.038564
C       0.365686   -0.485609   -1.423001
O       1.790447   -0.432219   -1.484494
C       1.962412    0.983476   -1.431478
C       0.971390    1.435776   -2.514195
C      -0.008900    0.533832   -2.509002
H      -0.372795    1.933788    1.079888
H      -0.590220    2.159921   -0.685412
H       2.136248    2.090026    0.540339
H      -0.740132   -0.556398    0.555607
H       0.032369   -1.511811   -1.582582
H       3.011829    1.229476   -1.598405
H       1.043826    2.347442   -3.091577
H      -0.926732    0.534379   -3.081134
