19

C      -0.067129    1.636937   -0.109925
C       0.013909    0.134703   -0.043391
C       0.696906   -0.828655   -0.982595
C       1.771193   -1.578697   -0.194922
C       1.212585   -1.488723    1.213907
C       0.178481   -0.636794    1.269270
C      -1.208719   -1.124987    1.597250
O      -1.535020   -1.671709    0.281768
C      -0.849145   -0.877749   -0.686673
H       0.876228    2.101796    0.197869
H      -0.287760    1.969026   -1.129474
H      -0.857739    2.024965    0.542785
H       0.917738   -0.526681   -2.004491
H       1.860849   -2.637871   -0.470632
H       2.764850   -1.132874   -0.348421
H       1.397565   -2.265881    1.949236
H      -1.248390   -1.939526    2.322386
H      -1.936098   -0.347843    1.862926
H      -1.479972   -0.666641   -1.545191
