19

O       0.030180    0.038571   -0.343843
C      -0.011805    1.211716   -0.083383
C      -1.282851    2.047225    0.120991
C      -0.783912    3.377793    0.702684
C       0.624097    3.556835    0.099809
C       0.686538    4.343662   -1.237903
O       1.411142    5.423700   -0.621666
C       1.476407    4.725886    0.637179
C       1.198125    2.138071    0.102894
H      -1.740352    2.189993   -0.867166
H      -2.012114    1.512178    0.733313
H      -1.438987    4.225791    0.485939
H      -0.700356    3.302818    1.794331
H       1.267484    3.863469   -2.037114
H      -0.275811    4.675740   -1.649331
H       1.026571    5.305803    1.453832
H       2.507881    4.466251    0.911305
H       1.638583    1.902868    1.082389
H       1.968902    1.945833   -0.647614
