20

C       0.064419    1.486372   -0.223600
C      -0.045018   -0.003244    0.118433
C      -1.477875   -0.546886    0.140898
C      -2.350845    0.068579    1.230240
N      -2.130453   -0.548745   -1.197281
C      -2.066488   -1.898504   -1.392986
O      -2.261374   -2.622436   -2.336898
C      -1.551868   -2.122242    0.045967
O      -0.352948   -2.840873    0.156057
H       1.113967    1.790848   -0.270762
H      -0.381268    1.707745   -1.200129
H      -0.427574    2.120209    0.520417
H       0.533309   -0.591324   -0.599781
H       0.406736   -0.195311    1.098691
H      -2.490593    1.142871    1.075351
H      -3.340347   -0.397764    1.241009
H      -1.891786   -0.071054    2.214314
H      -2.338399    0.199917   -1.843173
H      -2.319303   -2.529564    0.717512
H      -0.292424   -3.411617   -0.619130
