17

C       0.852652    1.289430   -0.263546
C       0.048350    0.018773   -0.020883
C       0.163505   -1.046901   -1.130076
C       1.314385   -1.949835   -0.631262
C       2.620743   -1.557758   -1.161208
N       3.638833   -1.232680   -1.601194
C       1.250725   -1.756839    0.888814
N       1.781984   -2.536344    1.721728
O       0.524057   -0.647043    1.174932
H       1.898951    1.063915   -0.489109
H       0.429996    1.843154   -1.107895
H       0.818798    1.931115    0.620705
H      -0.997426    0.271604    0.174593
H      -0.752966   -1.639465   -1.183847
H       0.352150   -0.612521   -2.112120
H       1.157047   -3.004896   -0.863837
H       1.616900   -2.218629    2.677979
