15

C      -0.110233    1.455237    0.020487
C      -0.012012    0.006158    0.005020
C       0.066147   -1.197367   -0.009075
C       0.160152   -2.601580   -0.024295
C       1.229048   -3.449628   -0.063101
C       0.633835   -4.742710   -0.064974
N       1.282339   -5.961871   -0.170151
N      -0.681553   -4.674960   -0.020785
O      -0.989375   -3.314359   -0.006376
H       0.882778    1.916806    0.003720
H      -0.665414    1.822344   -0.849720
H      -0.628359    1.806453    0.919628
H       2.273263   -3.189551   -0.100013
H       2.154324   -6.011425    0.336914
H       0.678949   -6.743522    0.049714
