13

C       0.010018    1.495855    0.012551
C      -0.062893    0.004380   -0.027164
C      -1.148773   -0.746619    0.202702
C      -1.075411   -2.193617    0.129936
N      -2.080012   -2.940653    0.340738
O       0.163080   -2.705824   -0.184541
N       1.315682   -1.834214   -0.425670
N       1.167175   -0.622940   -0.344022
H       0.745563    1.822496    0.755446
H       0.340460    1.887845   -0.955298
H      -0.960422    1.930163    0.259003
H      -2.112937   -0.319217    0.448596
H      -1.827474   -3.925355    0.243030
