20

C      -0.085572    1.569373   -0.100348
C      -0.030924    0.059438    0.042185
N       1.305486   -0.561573   -0.159221
C       0.696203   -0.617673    1.174734
C       1.374205    0.112000    2.286856
C       0.742872    0.130112    3.658557
C       1.993974   -0.674222    3.419001
C      -1.172867   -0.642384   -0.491151
C      -2.121912   -1.218963   -0.955346
H       0.834808    2.024743    0.268052
H      -0.203617    1.844117   -1.152700
H      -0.933219    1.979511    0.456784
H       1.204561   -1.452555   -0.638654
H       0.260393   -1.569320    1.478360
H       1.907823    1.004989    1.982026
H       0.814583    1.040564    4.242802
H      -0.189091   -0.409544    3.792294
H       1.904949   -1.755399    3.391518
H       2.928719   -0.316538    3.835618
H      -2.960872   -1.729562   -1.358842
