23

C      -0.191478    1.724385    0.293624
C      -0.059805    0.198043    0.343439
C      -1.302187   -0.559063   -0.148266
C      -1.613454   -0.234210   -1.631672
O      -2.335589   -1.258325   -2.311930
C      -2.025487   -2.571409   -1.866364
C      -2.501957   -2.755526   -0.402649
C      -1.153029   -2.088674   -0.010592
C      -0.572042   -2.686133   -1.329011
H       0.699197    2.208844    0.705468
H      -0.318477    2.090215   -0.730401
H      -1.054749    2.064624    0.876720
H       0.811283   -0.115670   -0.248142
H       0.146631   -0.111383    1.375813
H      -2.155119   -0.251507    0.473402
H      -2.213897    0.674352   -1.728347
H      -0.663649   -0.049269   -2.158150
H      -2.376351   -3.253296   -2.643596
H      -3.429926   -2.249515   -0.122946
H      -2.544523   -3.808897   -0.112003
H      -0.688751   -2.364352    0.940203
H      -0.287834   -3.733868   -1.205299
H       0.226173   -2.158873   -1.856959
