20

C      -0.015973    1.305774   -0.132313
C      -0.276119   -0.202574   -0.183539
C      -1.766743   -0.518890   -0.323915
O      -2.050033   -1.898329   -0.492403
C      -1.954186   -2.672264    0.677433
C      -2.503819   -4.083206    0.452461
C      -3.178028   -4.367250   -0.869664
O      -2.390263   -4.904894    1.331437
H       1.052079    1.519088   -0.033741
H      -0.371598    1.801447   -1.042402
H      -0.526640    1.770533    0.718396
H       0.253553   -0.652076   -1.031631
H       0.122447   -0.673992    0.722554
H      -2.321925   -0.123611    0.543476
H      -2.164682   -0.028146   -1.219289
H      -0.919730   -2.775847    1.036715
H      -2.533885   -2.222862    1.502434
H      -2.477647   -4.188369   -1.691640
H      -3.532544   -5.398232   -0.884468
H      -4.009444   -3.672087   -1.025407
