19

C      -0.142636    1.554412   -0.019349
C       0.041977    0.028280   -0.000403
C       0.874385   -0.513504   -1.193552
C       1.349540   -1.914462   -0.753496
C       1.347615   -1.895070    0.804968
C       0.869522   -0.484186    1.209002
C      -1.280059   -0.618952    0.004804
N      -2.318337   -1.128246    0.008851
H       0.837353    2.041393   -0.023383
H      -0.691363    1.875621   -0.909055
H      -0.694778    1.897168    0.860146
H       0.311862   -0.519747   -2.130210
H       1.727698    0.161535   -1.326029
H       0.662914   -2.680795   -1.122738
H       2.334521   -2.146725   -1.165836
H       0.661397   -2.653136    1.191582
H       2.332007   -2.115350    1.225223
H       1.721797    0.194469    1.329002
H       0.302877   -0.468297    2.143053
