16

C      -0.008756    1.565102    0.023601
C       0.010406    0.060525    0.001560
C      -0.016894   -0.655370   -1.146760
O      -0.063164   -0.110380   -2.372250
O      -0.000996   -2.000766   -1.198869
C       0.046339   -2.810377   -0.037998
N       0.058943   -4.073829   -0.156415
C       0.076135   -2.074799    1.200646
C       0.058774   -0.721760    1.205182
H       0.879995    1.967296    0.524116
H      -0.037141    1.974294   -0.987540
H      -0.883760    1.944925    0.564333
H      -0.073047   -0.830219   -3.015786
H       0.031495   -4.354439   -1.135795
H       0.112642   -2.664866    2.105998
H       0.082104   -0.189860    2.152238
