18

C      -0.218211    1.118496    0.758600
C      -0.430506   -0.335730    0.430675
O       0.242851   -1.237499    0.878596
C      -1.591758   -0.649474   -0.549277
O      -2.266798    0.258049   -0.975689
C      -1.820995   -2.109287   -0.891556
C      -2.686345   -2.784030    0.166767
C      -2.471065   -4.213877    0.500642
N      -2.123392   -3.162952    1.468898
H       0.621141    1.224865    1.445639
H      -0.038933    1.687719   -0.159011
H      -1.129756    1.534927    1.199079
H      -2.325864   -2.145675   -1.861432
H      -0.859353   -2.625761   -0.959093
H      -3.695390   -2.380583    0.228860
H      -3.312047   -4.841653    0.781750
H      -1.670035   -4.736182   -0.017284
H      -1.119315   -2.994644    1.464960
