19

C      -0.278161    1.523349    0.058156
C      -0.091109    0.041105   -0.013080
C      -0.054187   -0.731651   -1.102989
C       0.149683   -2.182200   -0.773744
O       1.506424   -2.655353   -1.012854
C       1.800466   -2.608798    0.397918
C       0.352849   -2.205138    0.758275
C       0.088998   -0.768146    1.266806
O       1.079162   -0.231585    2.137101
H       0.517484    1.984861    0.652680
H      -0.290284    1.981526   -0.933770
H      -1.220499    1.771977    0.563434
H      -0.146087   -0.374327   -2.123487
H      -0.581323   -2.857013   -1.232222
H       2.123540   -3.584615    0.777231
H       2.583061   -1.874574    0.635368
H      -0.190193   -2.963100    1.321249
H      -0.826127   -0.740431    1.871575
H       1.899502   -0.154133    1.637476
