14

N       0.706354    0.091655   -0.815796
C      -0.114876    0.321974    0.246404
O       0.154159    1.074011    1.162433
C      -1.366129   -0.425338    0.194235
C      -2.416734   -1.016126    0.194382
C      -3.693214   -1.733684    0.236798
O      -3.849981   -2.659390   -0.800489
C      -3.805150   -2.433441    1.601171
O      -3.989643   -3.620375    1.665846
H       1.586231    0.579501   -0.854928
H       0.444525   -0.526704   -1.563581
H      -4.505752   -0.985227    0.206025
H      -3.919754   -3.524017   -0.362488
H      -3.700781   -1.788497    2.492634
