14

N       0.089657    1.392369    0.170235
C      -0.016231    0.023831    0.061158
C      -1.177257   -0.680164    0.032804
O      -2.381590   -0.053104    0.033828
C      -1.192551   -2.124522   -0.009521
O      -2.275076   -2.721285   -0.044776
C       0.130769   -2.730625   -0.020319
C       1.227309   -1.953836    0.000161
O       1.186601   -0.601544    0.043500
H       0.894879    1.790919   -0.292837
H      -0.774122    1.869980   -0.046219
H      -3.013246   -0.798035   -0.004813
H       0.226401   -3.808372   -0.053620
H       2.249899   -2.306735   -0.013673
