21

O       0.062144    1.417302   -0.649636
C      -0.003956    0.243489    0.135774
C      -1.365258   -0.415544   -0.024097
O      -1.610966   -0.675757   -1.433632
C      -1.689948   -2.098760   -1.197268
C      -1.509924   -1.909189    0.324482
C      -0.458827   -2.755461    1.090415
C      -1.621521   -3.589070    1.695913
C      -2.596385   -2.452750    1.284457
H      -0.239234    1.155763   -1.529218
H       0.787165   -0.472238   -0.142356
H       0.163145    0.539441    1.177560
H      -2.148790    0.235625    0.386757
H      -2.655317   -2.509214   -1.519655
H      -0.882498   -2.643630   -1.704284
H       0.289295   -3.281740    0.491344
H       0.060865   -2.168337    1.853834
H      -1.802392   -4.508202    1.131908
H      -1.560602   -3.841473    2.756475
H      -2.783384   -1.756215    2.108290
H      -3.557116   -2.732645    0.843392
