22

C      -0.071672    1.558113    0.039273
C       0.028310    0.025322    0.067194
C       0.752075   -0.443308    1.337447
C      -1.353218   -0.631852   -0.066326
C      -2.116764   -0.254846   -1.349372
O      -3.030001   -1.333626   -1.599290
C      -2.622413   -2.465386   -0.946681
N      -3.220871   -3.575520   -0.996417
C      -1.360467   -2.166813   -0.169000
H       0.918842    2.014040    0.134115
H      -0.515231    1.925946   -0.891417
H      -0.685573    1.924987    0.870558
H       0.625636   -0.292264   -0.800823
H       0.186782   -0.164543    2.234827
H       0.888634   -1.528585    1.352689
H       1.741818    0.018032    1.414097
H      -1.967356   -0.335863    0.795173
H      -2.702218    0.663244   -1.266464
H      -1.434266   -0.157880   -2.205798
H      -4.039142   -3.511388   -1.605067
H      -0.496022   -2.520986   -0.745953
H      -1.357938   -2.693868    0.784839
