15

O       0.769440    0.811798   -0.550765
C       0.769438    2.075141    0.005830
C       1.255274    2.436665    1.197969
N       1.816421    1.702651    2.222057
C       1.154046    0.965206    3.035423
C      -0.283260    0.727361    3.043909
C      -1.031267    0.238850    2.031416
N      -0.618162   -0.456489    0.928121
C       0.149159   -0.277207   -0.050266
H       0.502853    2.823695   -0.729956
H       1.327068    3.512712    1.352695
H       1.734565    0.542530    3.861084
H      -0.792208    0.928807    3.983416
H      -2.105874    0.157823    2.189790
H       0.370990   -1.113026   -0.711797
