17

C      -0.144681    1.371610   -0.569834
C      -0.071314    0.138187    0.348723
C      -1.360631   -0.521594    0.527665
C      -2.441346   -1.037120    0.658189
C      -3.733933   -1.689880    0.834730
N      -3.854561   -2.905388    0.033931
C      -4.954712   -3.172345   -0.717458
O      -5.954200   -2.486469   -0.760038
H       0.843732    1.829114   -0.672341
H      -0.502152    1.094094   -1.564975
H      -0.830370    2.118982   -0.161965
H       0.648739   -0.582239   -0.060378
H       0.324194    0.432071    1.329423
H      -3.896434   -1.916437    1.897701
H      -4.557963   -1.040300    0.522304
H      -3.054133   -3.513094   -0.033915
H      -4.837481   -4.109855   -1.295979
