18

C       0.067060    1.529543   -0.081742
C      -0.102756    0.060470    0.120581
C      -1.404186   -0.759919    0.176221
C      -0.662001   -1.792263    1.100611
C      -0.510979   -3.232185    0.592917
C      -1.791530   -3.928963    0.499468
N      -2.816182   -4.459629    0.433317
C       0.596766   -0.916056    0.976894
O       0.898732   -0.821753   -0.421738
H       1.108020    1.820036    0.082171
H      -0.210321    1.814371   -1.102826
H      -0.569812    2.092264    0.608143
H      -2.222076   -0.252774    0.692263
H      -1.758151   -1.132476   -0.788210
H      -1.070999   -1.782401    2.113831
H      -0.040798   -3.210929   -0.395870
H       0.150189   -3.803814    1.255060
H       1.422359   -0.802867    1.671487
