22

C       0.062476    1.464213    0.000420
C       0.023936    0.008808   -0.003602
C      -0.018299   -1.195295    0.010347
C      -0.011290   -2.641661   -0.030769
C       1.249150   -3.191193   -0.684516
N      -0.549527   -3.315545    1.188620
C      -1.322561   -3.390849   -0.065179
C      -2.622350   -2.610134   -0.036989
C      -1.443249   -4.719367   -0.787883
H       1.035874    1.837728   -0.336673
H      -0.701388    1.887571   -0.661531
H      -0.113619    1.862168    1.006019
H       2.130740   -2.833619   -0.143134
H       1.274767   -4.282845   -0.687158
H       1.332519   -2.842795   -1.718755
H      -0.031883   -4.182533    1.327180
H      -2.505671   -1.676542    0.513609
H      -2.957303   -2.375410   -1.053532
H      -3.405440   -3.203154    0.448704
H      -2.218062   -5.329347   -0.308720
H      -1.742835   -4.572266   -1.831455
H      -0.517890   -5.298555   -0.781789
