16

C       0.799843    1.376183   -0.016924
O       0.883152   -0.048581   -0.159401
C       0.023465   -0.589628   -1.038306
O      -0.800061    0.034174   -1.654324
C       0.238494   -2.107871   -1.137736
C      -0.980730   -2.789928   -1.779367
C       1.471424   -2.373255   -1.877782
C       2.468050   -2.596340   -2.510676
H       1.005533    1.869548   -0.970050
H      -0.195531    1.670850    0.324650
H       1.553831    1.644020    0.722906
H       0.372616   -2.471440   -0.111200
H      -1.875389   -2.609281   -1.178196
H      -1.155270   -2.388958   -2.779048
H      -0.811600   -3.866460   -1.851627
H       3.354489   -2.794208   -3.060839
