17

O       0.162843    1.731986   -1.083376
C       0.157708    1.635962    0.126773
N       1.180712    1.125069    0.858943
C       2.398766    0.629425    0.230844
C       3.286262    1.745624   -0.286004
C       4.212267    2.486238    0.627556
C       4.790360    1.540318   -0.417787
C       5.392221    0.309083    0.012399
N       5.867855   -0.685081    0.366058
H      -0.694011    1.954463    0.759525
H       1.107184    1.126884    1.862918
H       2.933924    0.015849    0.959829
H       2.113037   -0.017833   -0.603924
H       2.836761    2.312600   -1.093596
H       4.373045    3.546602    0.472413
H       4.279597    2.163792    1.660965
H       5.270423    1.986178   -1.281920
