19

C      -0.048193    1.524110    0.023480
C      -0.007073    0.011837   -0.069381
C      -1.224183   -0.672378    0.519980
C       0.720744   -0.692099   -1.163340
C       1.724858    0.044782   -2.052091
N       2.740091    0.415398   -1.087286
C       2.444287    0.079767    0.214147
O       3.073632    0.385489    1.194872
N       1.257506   -0.735722    0.213541
H       0.814996    2.008798   -0.434904
H      -0.950799    1.897509   -0.471485
H      -0.089169    1.836246    1.072035
H      -2.133288   -0.366079   -0.009347
H      -1.129466   -1.758714    0.456495
H      -1.338999   -0.404283    1.575315
H       0.317718   -1.625136   -1.546782
H       2.118370   -0.629490   -2.822184
H       1.291511    0.916876   -2.560948
H       3.515056    1.025877   -1.286609
