14

C       0.074412    1.545090    0.039760
C      -0.020790    0.060238    0.027932
C      -1.084692   -0.781594   -0.061304
O      -0.640995   -2.093542   -0.026690
C       0.725080   -2.095226    0.087262
O       1.423129   -3.064514    0.143820
N       1.089650   -0.751194    0.119923
C      -2.499732   -0.499859   -0.181761
O      -3.375128   -1.332621   -0.258848
H       0.687298    1.903062   -0.795187
H      -0.911775    2.002209   -0.041412
H       0.540019    1.897835    0.966969
H       2.049657   -0.460410    0.199505
H      -2.724952    0.588794   -0.198555
