16

C       0.028348    1.512732    0.049527
C       0.025078    0.004429    0.014712
C      -0.043330   -0.700405   -1.188224
C      -0.046373   -2.091726   -1.221102
C       0.020398   -2.803299   -0.025354
C       0.089317   -2.127420    1.186894
C       0.091701   -0.733397    1.207301
O       0.161263   -0.130765    2.431048
H       0.941394    1.915202    0.509657
H      -0.029361    1.925084   -0.960398
H      -0.825331    1.916669    0.611152
H      -0.095214   -0.138787   -2.116692
H      -0.100308   -2.613600   -2.169910
H       0.018983   -3.888262   -0.033607
H       0.142072   -2.657911    2.130949
H       0.155868    0.824357    2.316872
