10

N       0.028161   -1.140948   -0.003912
C       0.017102    0.016449    0.002526
C      -0.028608    1.436171    0.011033
C      -1.159708    2.221743    0.030681
N      -0.696074    3.508141    0.031556
C       0.670756    3.453597    0.012769
N       1.109020    2.221444    0.000036
H      -2.208150    1.977755    0.043493
H      -1.263125    4.340162    0.043832
H       1.282881    4.342683    0.009425
