19

C      -0.066337    1.688580    0.119929
C       0.041770    0.174672    0.013728
C      -1.351622   -0.468120   -0.140950
C      -2.012764   -0.101791   -1.390770
N      -2.514374    0.196645   -2.388400
C       1.085703   -0.442357   -0.967758
C       1.691834   -1.129869    0.252278
C       2.084633   -0.145593    1.274647
N       0.663450   -0.534000    1.205616
H       0.912340    2.167707    0.194432
H      -0.566704    2.097650   -0.763421
H      -0.649842    1.966671    1.004382
H      -1.253147   -1.557430   -0.094272
H      -1.981426   -0.171897    0.705119
H       0.640840   -1.121088   -1.697615
H       1.740985    0.254434   -1.497582
H       1.973928   -2.175760    0.311118
H       2.563404   -0.515755    2.175882
H       2.395518    0.852941    0.980326
