14

C      -0.040034    1.499640    0.022845
C       0.011103   -0.003255    0.014079
N       0.132881   -0.617740   -1.177210
C       0.178523   -1.939547   -1.192846
C       0.102393   -2.681765   -0.003351
O       0.152323   -4.026795   -0.060252
N      -0.017444   -2.098537    1.177532
C      -0.062453   -0.760850    1.179367
H       0.867419    1.919951   -0.422540
H      -0.885774    1.861197   -0.570873
H      -0.139099    1.889429    1.039165
H       0.276714   -2.443331   -2.150160
H       0.085365   -4.341163    0.852346
H      -0.160956   -0.281505    2.150028
