19

C      -0.114845    1.545013   -0.017607
C      -0.065671    0.012200    0.035849
O       0.701461   -0.427460    1.127781
C      -1.464705   -0.586467    0.134691
O      -1.830115   -1.246841    1.078807
O      -2.228913   -0.296708   -0.925424
C      -3.573781   -0.831808   -0.917587
C      -4.219473   -0.378934   -2.213884
O      -3.563526   -0.901626   -3.350532
H       0.906219    1.931691   -0.056278
H      -0.660786    1.891286   -0.898752
H      -0.596560    1.941020    0.881380
H       0.377202   -0.359015   -0.901811
H       0.102746   -0.951100    1.680846
H      -3.518997   -1.922381   -0.859789
H      -4.108773   -0.457394   -0.039475
H      -5.249120   -0.749834   -2.242757
H      -4.259573    0.721409   -2.235632
H      -2.646365   -0.610817   -3.303463
