17

C       0.031536    1.334901    0.562583
C       0.004386   -0.016140   -0.119863
O       0.968394   -0.477029   -0.690094
C      -1.279196   -0.802921   -0.082872
C      -2.614115   -0.136074   -0.047876
N      -2.091842   -0.763639    1.179338
C      -2.526084   -2.128477    1.283755
N      -2.120475   -2.977606    0.433203
C      -1.251809   -2.268140   -0.522027
H       1.066687    1.661150    0.667475
H      -0.505710    2.072113   -0.045609
H      -0.462103    1.287478    1.537056
H      -2.686233    0.946081   -0.008705
H      -3.429749   -0.637778   -0.563203
H      -3.174255   -2.377660    2.118723
H      -1.611246   -2.433650   -1.542520
H      -0.231256   -2.658877   -0.472635
