13

C       0.106419    1.461486   -0.095140
N       0.257605    0.021235   -0.004445
C       0.238637   -0.640291    1.183981
O       0.093322   -0.118866    2.274202
C       0.409024   -2.085105    1.051843
C       0.558627   -3.283601    1.009961
C       0.701325   -4.720180    0.971792
O       1.708414   -5.290924    0.625907
H       1.015347    1.931603   -0.485841
H      -0.735343    1.725886   -0.743198
H      -0.082606    1.836030    0.911009
H       0.419794   -0.514255   -0.842113
H      -0.205184   -5.271920    1.290489
