18

N      -0.037744    1.319977    0.184984
C       0.018130    0.062703    0.000570
N       1.178405   -0.702034   -0.122237
C       1.252029   -1.989011   -0.809877
C      -0.024303   -2.786444   -0.568653
C      -1.217707   -1.886575   -0.878398
N      -1.179541   -0.698116   -0.029247
C      -2.270640   -0.416766    0.785305
O      -2.360336    0.430670    1.630517
H       0.897174    1.725228    0.230912
H       1.996302   -0.124005   -0.248043
H       1.391307   -1.854085   -1.895403
H       2.127164   -2.531089   -0.436933
H      -0.033203   -3.674694   -1.207184
H      -0.076978   -3.113392    0.475068
H      -1.203809   -1.594521   -1.937838
H      -2.164062   -2.401669   -0.696300
H      -3.092138   -1.128954    0.560266
