17

C      -0.039344    1.540404   -0.151273
C       0.042023    0.038356    0.050242
O       0.718428   -0.503478   -1.092874
C       0.754144   -1.907875   -1.205247
C       1.535024   -2.606306   -0.068336
C      -0.622991   -2.474085   -1.276492
N      -1.698689   -2.894095   -1.283451
C       1.433106   -2.182866   -2.492747
N       1.991107   -2.422995   -3.473612
H       0.960772    1.971503   -0.246707
H      -0.606566    1.776899   -1.054957
H      -0.537299    2.002949    0.705672
H       0.597508   -0.200865    0.966403
H      -0.960637   -0.401799    0.132520
H       1.008241   -2.489431    0.880010
H       1.636231   -3.672421   -0.281259
H       2.526590   -2.154347    0.001094
