21

O       0.214708    1.412017    0.440933
C       0.124914    0.010729    0.224317
C      -1.319601   -0.446555   -0.005070
C      -1.471638   -1.964495   -0.159180
C      -2.899829   -2.524342   -0.026668
C      -2.833944   -3.905418   -0.711848
C      -1.919301   -3.670761   -1.924508
C      -0.996003   -2.518811   -1.511598
O      -0.067704   -2.101879   -2.159320
H       0.051255    1.847193   -0.401459
H       0.757070   -0.315312   -0.610057
H       0.515354   -0.455209    1.137257
H      -1.927297   -0.102584    0.840223
H      -1.717935    0.049001   -0.901206
H      -0.840959   -2.465521    0.594624
H      -3.238431   -2.577400    1.011130
H      -3.600152   -1.871579   -0.564221
H      -2.377798   -4.634036   -0.031637
H      -3.819119   -4.290814   -0.984978
H      -1.340495   -4.538495   -2.250626
H      -2.491232   -3.327646   -2.796545
