18

C      -0.371978    1.014291    0.035469
N      -0.060798   -0.407334    0.037411
C       0.761415   -0.862186    1.085618
C       1.217498   -2.160277    1.259888
N       1.949778   -2.166701    2.404732
N       2.006340   -0.961650    2.999395
C       1.282680   -0.170260    2.204902
O       1.091215   -3.275809    0.505674
C      -0.261364   -3.723610    0.339082
H       0.515796    1.667339    0.010002
H      -0.994301    1.242624   -0.833462
H      -0.945479    1.263357    0.934260
H       0.296028   -0.706033   -0.862279
H       2.452734   -2.948465    2.789131
H       1.157918    0.870574    2.463149
H      -0.679324   -4.054424    1.297112
H      -0.889040   -2.926309   -0.071607
H      -0.222072   -4.565425   -0.354404
