18

C      -0.376819    1.621727   -0.010761
C      -0.066676    0.121253    0.026511
C       1.158980   -0.349937   -0.853222
C       1.893519   -0.800626    0.419962
O       2.664584    0.261579    1.025830
C       1.632075    0.509280    2.010667
C       0.668609   -0.451680    1.307106
C      -1.274307   -0.646997   -0.259451
N      -2.227355   -1.264322   -0.479757
H       0.538423    2.201765    0.127832
H      -0.804332    1.893353   -0.980126
H      -1.094146    1.900370    0.766767
H       0.908259   -1.167095   -1.532391
H       1.658295    0.447782   -1.406636
H       2.423471   -1.755789    0.417908
H       1.937575    0.155882    3.003937
H       1.359046    1.567251    2.079735
H       0.103462   -1.161765    1.906557
