21

C      -0.006566    1.586337   -0.035684
C      -0.011859    0.050896   -0.021972
C       0.678434   -0.508711   -1.282185
C       0.305755   -1.920591   -1.628984
C       0.170975   -2.943562   -0.771970
C       0.398201   -2.953970    0.669012
C       0.594217   -1.941742    1.530964
C       0.625386   -0.459468    1.283860
O       1.969769    0.024108    1.442420
H       1.018428    1.966484   -0.011553
H      -0.500067    1.970955   -0.933586
H      -0.531727    1.991866    0.835506
H      -1.053667   -0.296014   -0.022300
H       0.442826    0.136790   -2.134918
H       1.769578   -0.421228   -1.151707
H       0.131974   -2.124932   -2.682937
H      -0.097661   -3.910871   -1.190297
H       0.421583   -3.953579    1.100303
H       0.792738   -2.205782    2.567841
H       0.074838    0.017352    2.106692
H       2.552562   -0.622015    1.030542
