20

C       0.130778    1.136185   -0.386386
N       0.037149   -0.227740    0.113787
C       0.747846   -0.428532    1.368309
C      -1.307238   -0.700849    0.164687
C      -1.986841   -1.221555   -1.095178
O      -1.186670   -1.521564   -2.205656
C      -0.209865   -2.471094   -1.799670
O      -0.601585   -3.005065   -0.541886
C      -1.607618   -2.183108   -0.016788
H       1.183643    1.415817   -0.495135
H      -0.345109    1.195570   -1.368525
H      -0.349399    1.877119    0.280266
H       0.327315    0.160886    2.204799
H       0.712813   -1.486771    1.639408
H       1.796225   -0.137481    1.246919
H      -1.996673   -0.196183    0.857122
H      -2.994540   -0.932371   -1.366756
H      -0.166972   -3.282475   -2.538222
H       0.762156   -1.976039   -1.700075
H      -2.291354   -2.715361    0.632866
