12

N       0.021519    1.446627    0.143878
C      -0.019403    0.047829    0.030592
C      -1.145746   -0.703992    0.005954
O      -1.109663   -2.044809   -0.003383
C       0.112501   -2.754870   -0.031781
O       0.049215   -3.947489   -0.068731
N       1.276855   -2.002855   -0.010882
C       1.199567   -0.710962    0.027715
H       0.717491    1.874067   -0.454674
H      -0.874322    1.890089   -0.013523
H      -2.158585   -0.314558    0.009119
H       2.145020   -0.164116    0.059012
