19

C       0.021333    1.545457    0.081287
C       0.024701    0.027468    0.040010
C       0.619545   -0.548519   -1.245972
C       0.991225   -2.021931   -1.148147
O       1.182971   -2.713973   -2.109279
O       1.181063   -2.530697    0.093896
C       0.725480   -1.821927    1.271060
C       1.591477   -2.271075    2.425783
O       0.812697   -0.443780    1.134279
H       1.042759    1.929936    0.002210
H      -0.566331    1.947146   -0.749430
H      -0.410906    1.902759    1.019473
H      -1.005186   -0.346990    0.166233
H      -0.048244   -0.429068   -2.102410
H       1.548450   -0.015335   -1.484447
H      -0.326691   -2.120062    1.414904
H       2.624605   -1.961046    2.251674
H       1.232874   -1.818674    3.353278
H       1.555207   -3.358470    2.516590
