15

C      -0.027980    1.527837    0.028953
C      -0.005642    0.022931   -0.014118
C      -0.034869   -0.704938   -1.204397
C      -0.013525   -2.098111   -1.221388
C       0.038484   -2.774753   -0.012648
F       0.059796   -4.111197   -0.005665
C       0.069384   -2.100959    1.201046
C       0.046402   -0.715904    1.168154
F       0.075685   -0.050526    2.330642
H       0.860578    1.927250    0.529403
H      -0.066124    1.944092   -0.980415
H      -0.895727    1.899658    0.584249
H      -0.075484   -0.164980   -2.145075
H      -0.036415   -2.656831   -2.148773
H       0.109993   -2.635431    2.141275
