18

C      -0.130367    1.490663   -0.011369
N       0.048408    0.048598   -0.017583
C       0.759292   -0.484232   -1.191543
C       1.476552   -1.715443   -0.652162
C       1.083277   -1.956909    0.756065
C       2.541732   -1.514023    0.438790
C       2.267329   -0.244564    1.180926
O       2.966712    0.557511    1.737792
C       0.724900   -0.506826    1.153973
H       0.818368    2.055267   -0.019735
H      -0.711852    1.788656   -0.889771
H      -0.693343    1.786618    0.879510
H       0.047489   -0.746826   -1.984419
H       1.476398    0.238266   -1.613943
H       1.664480   -2.555610   -1.310952
H       0.749828   -2.876497    1.212846
H       3.456985   -2.092938    0.441125
H       0.186170   -0.307359    2.081340
