21

C      -0.134531    1.542805   -0.043468
C       0.042236    0.035580    0.024464
O       0.838720   -0.400121   -1.092341
C       1.538119   -1.548396   -0.666481
C       2.586430   -1.400881    0.419103
C       2.290549   -0.133710    1.215650
C       0.773690   -0.546850    1.249629
C       0.040535   -0.436852    2.569791
C       1.188522   -1.955637    0.719950
H       0.821266    2.064752    0.053198
H      -0.578036    1.823601   -1.002793
H      -0.803650    1.885833    0.751965
H      -0.950450   -0.444953   -0.040536
H       1.701763   -2.276471   -1.452047
H       3.531771   -1.930459    0.377060
H       2.726055   -0.172624    2.217772
H       2.546181    0.824534    0.752498
H      -0.068082    0.608987    2.878055
H      -0.963896   -0.871588    2.503073
H       0.579301   -0.962172    3.364629
H       0.847981   -2.924830    1.061471
