15

O       0.104230    1.421581   -0.059043
C      -0.038362    0.062762    0.048534
C      -0.429662   -0.743471    1.252461
C      -1.618781   -0.177168    2.062827
N      -2.040131    1.124437    1.465702
C      -2.487168   -0.163544    0.873947
C      -1.352483   -0.732776   -0.024561
C      -1.578169   -1.781569   -0.953834
N      -1.768303   -2.636168   -1.713602
H      -0.617833    1.799669    0.475980
H       0.729696   -0.443603   -0.532583
H       0.150104   -1.588106    1.603002
H      -1.841088   -0.415095    3.093507
H      -2.807803    1.492958    2.024673
H      -3.535522   -0.399487    0.754870
