17

C       0.061875    1.539322    0.083297
C       0.023315    0.042256    0.023307
C      -1.276239   -0.767080    0.255295
C      -0.347194   -1.799177    0.858522
N       0.721756   -0.802365    1.163278
C       0.923794   -1.809820    0.050438
C       0.812279   -0.755629   -1.038384
C       1.878895   -2.870286    0.135428
N       2.645254   -3.736251    0.169007
H       1.093048    1.904911    0.065774
H      -0.468056    1.968093   -0.775135
H      -0.415499    1.906453    0.996926
H      -1.895258   -0.308070    1.030657
H      -1.892167   -1.028491   -0.610375
H      -0.572718   -2.606144    1.545853
H       0.315255   -1.013882   -1.977824
H       1.786503   -0.303267   -1.237564
