21

C      -0.084781    1.564213   -0.118920
C      -0.005875    0.043097   -0.035132
O      -1.292066   -0.537063   -0.143377
C       1.125763   -0.561361   -0.926198
C       2.028400   -0.638575    0.333559
C       0.749226   -0.517916    1.205577
C       0.777723    0.263992    2.519411
C       1.508287   -0.502418    3.598391
O       2.472983   -0.105711    4.199697
H       0.897714    2.031257   -0.001827
H      -0.472117    1.866132   -1.100270
H      -0.752835    1.963824    0.650009
H      -1.758532   -0.113065   -0.871939
H       0.831953   -1.552262   -1.280602
H       1.476991    0.036486   -1.771502
H       2.640002   -1.533272    0.462972
H       2.674814    0.238245    0.434369
H       0.338460   -1.518240    1.385278
H       1.251320    1.243435    2.408028
H      -0.256308    0.412697    2.864357
H       1.081263   -1.512958    3.804906
