17

C      -0.326368    1.520380    0.046362
C      -0.054808    0.038795   -0.011050
O      -1.093364   -0.786729    0.447377
C       0.681654   -0.640558   -1.158295
N       1.571175    0.131397   -1.966643
C       2.536113    0.759986   -1.195741
N       3.339696    1.645792   -1.605013
O       2.460869    0.265318    0.088716
C       1.323212   -0.566792    0.202759
H       0.487372    2.110369   -0.379779
H      -1.246839    1.749998   -0.499317
H      -0.457503    1.844341    1.085680
H      -1.178179   -0.660813    1.399926
H       0.279606   -1.558357   -1.571880
H       1.262843    0.618240   -2.792762
H       3.946973    1.950582   -0.848310
H       1.466126   -1.415262    0.860138
