20

C       0.195953    1.538600    0.124879
C       0.097363    0.086560    0.121775
C       0.017850   -1.116132    0.132787
C      -0.042707   -2.551937    0.092887
C      -0.701707   -3.320449    1.197537
N      -1.315058   -3.271534   -0.123492
C      -2.537820   -2.479774   -0.257647
C      -3.749653   -3.406942   -0.203195
O      -3.841719   -4.116790    1.021825
H       1.242365    1.861230    0.161840
H      -0.251896    1.972658   -0.776035
H      -0.314576    1.971682    0.992127
H       0.794765   -3.023922   -0.416821
H      -0.289174   -4.279219    1.502450
H      -1.160601   -2.738729    1.993768
H      -2.624021   -1.705550    0.519549
H      -2.515440   -1.972615   -1.229462
H      -4.665924   -2.812444   -0.284889
H      -3.717324   -4.096575   -1.059532
H      -3.107435   -4.738755    1.038085
