14

O       0.080797    1.306060    0.320697
C       0.072148   -0.068964   -0.002408
C      -1.348502   -0.542552   -0.259765
C      -1.633078   -2.055459   -0.155656
C      -2.458874   -1.672327    1.089564
O      -2.171376   -0.266888    0.907146
H      -0.574460    1.411450    1.022245
H       0.687886   -0.199063   -0.899918
H       0.516872   -0.677354    0.803501
H      -1.757620   -0.037664   -1.143630
H      -2.204742   -2.480628   -0.981053
H      -0.755767   -2.678114    0.032853
H      -3.534573   -1.874018    1.029385
H      -2.081860   -2.047295    2.048447
