19

C      -0.063649    1.527443   -0.081218
C       0.039933    0.013359   -0.002612
O       0.698707   -0.445739   -1.181591
C       0.773878   -1.845060   -1.222685
O       1.512037   -2.377027   -0.153266
C       0.919549   -2.048168    1.093822
C       0.784736   -0.519816    1.250237
C       2.150002    0.123206    1.411479
O       2.413158    0.934937    2.263500
H       0.925937    1.988881   -0.133808
H      -0.625671    1.815465   -0.973244
H      -0.576796    1.919521    0.801428
H      -0.975787   -0.421005    0.022891
H      -0.246551   -2.275344   -1.221155
H       1.299404   -2.114595   -2.140386
H      -0.078376   -2.510335    1.176930
H       1.558844   -2.482588    1.867235
H       0.199681   -0.279607    2.144156
H       2.912990   -0.213056    0.679209
