19

O       0.038746    1.439453    0.244835
C      -0.000297    0.061322    0.131700
C      -0.822303   -0.704869   -0.911019
C      -1.175190   -1.761096    0.190299
C      -0.373754   -0.950278    1.218277
C       1.046188   -0.812568    0.751888
C       2.049462   -1.804961    0.164771
O       3.114358   -1.203225    0.935745
C       2.210816   -0.276291    1.577131
H       0.765357    1.772365   -0.294929
H      -1.700015   -0.136452   -1.225831
H      -0.290158   -1.058234   -1.800706
H      -2.244253   -1.794283    0.407561
H      -0.823062   -2.782125    0.013937
H      -0.643054   -0.787808    2.255840
H       1.893676   -2.857999    0.435344
H       2.235452   -1.737346   -0.915456
H       2.489306    0.770373    1.395238
H       2.151156   -0.442331    2.660938
