19

C      -0.033385    1.488416    0.200218
O       0.035498    0.092460   -0.037942
C      -1.193847   -0.577611    0.006500
C      -0.967509   -1.959865   -0.636933
C      -0.612270   -1.849315   -2.107173
O      -1.111706   -2.525068   -2.969871
C      -1.745508   -0.728772    1.441120
C      -3.120178   -1.361847    1.581227
O      -1.106642   -0.359038    2.395668
H       0.973667    1.881306    0.045513
H      -0.717580    1.978289   -0.509636
H      -0.352444    1.709019    1.223592
H      -1.958955   -0.028794   -0.575414
H      -0.122551   -2.425725   -0.112283
H      -1.840648   -2.608563   -0.542151
H       0.157361   -1.083912   -2.337616
H      -3.770507   -1.135430    0.731435
H      -3.015071   -2.451670    1.634290
H      -3.579943   -1.022114    2.510645
