21

C      -0.260955    0.796654    1.312805
C      -0.244703    0.333724   -0.138252
O       0.946314   -0.400905   -0.458167
C      -1.472075   -0.494183   -0.573826
O      -1.307464   -0.884215   -1.928047
C      -1.689569   -1.733452    0.275249
O      -2.286476   -1.574135    1.569369
C      -3.005590   -2.317935    0.572880
C      -4.327805   -1.768351    0.105702
H       0.621769    1.408383    1.518864
H      -1.154031    1.393468    1.520675
H      -0.272944   -0.052045    2.004023
H      -0.208176    1.203222   -0.804667
H       1.123645   -1.009204    0.267680
H      -2.357763    0.146556   -0.520991
H      -0.366072   -1.089224   -2.018430
H      -0.843079   -2.426201    0.259458
H      -3.014871   -3.392240    0.769608
H      -4.288858   -0.690085   -0.058255
H      -4.627777   -2.252504   -0.829448
H      -5.102404   -1.968518    0.853299
