23

C       0.031352    1.571386    0.234377
C      -0.012155    0.060303   -0.055450
C      -1.403285   -0.503605   -0.059833
C      -2.056391   -1.035875   -1.099508
C      -3.466624   -1.483313   -0.761749
C      -3.808970   -2.909384   -1.218559
C      -3.532669   -1.257733    0.753844
C      -2.556587   -1.986811    1.643498
C      -2.246512   -0.576183    1.178925
H       1.062452    1.938185    0.231980
H      -0.530979    2.129151   -0.520923
H      -0.401695    1.804796    1.212270
H       0.461490   -0.137035   -1.023611
H       0.589780   -0.460889    0.702048
H      -1.633680   -1.167819   -2.091051
H      -4.184997   -0.804739   -1.247820
H      -3.143021   -3.644251   -0.755762
H      -4.838112   -3.169822   -0.950183
H      -3.712897   -3.007085   -2.305299
H      -4.482154   -0.969345    1.190204
H      -2.851804   -2.122967    2.679086
H      -1.958048   -2.794173    1.234286
H      -2.223844    0.224734    1.910095
