16

C       0.178888   -1.084368    0.367308
C       0.057307    0.088155    0.135655
C      -0.081696    1.489280   -0.144994
N      -1.123090    2.118249    0.213934
C      -1.286370    3.526192   -0.111441
C      -0.078454    4.212129   -0.723968
C       1.216410    4.303377    0.059750
C       1.080401    3.334826   -1.081641
O       1.020444    1.954821   -0.802042
H       0.276557   -2.121093    0.577024
H      -2.129011    3.596045   -0.812102
H      -1.615264    4.042893    0.799869
H      -0.302115    5.028468   -1.403401
H       1.852615    5.170718   -0.075447
H       1.225559    3.881959    1.060138
H       1.637509    3.492395   -1.997047
