12

F       0.001812    0.018553    0.003679
C      -0.016356    1.356668    0.010623
C      -1.239140    2.013341    0.030294
C      -1.249615    3.406142    0.037417
C      -0.053900    4.121811    0.024991
C       1.160803    3.439036    0.005301
C       1.188146    2.046466   -0.002049
H      -2.154841    1.433937    0.039655
H      -2.198672    3.931348    0.052760
H      -0.068619    5.205898    0.030626
H       2.095249    3.989946   -0.004450
H       2.119239    1.492264   -0.017297
