20

C      -0.258367    1.523201   -0.057522
C       0.116098    0.039134    0.062458
C       0.775926   -0.505139   -1.174725
C       0.022363   -0.986542   -2.384553
C       0.951547   -1.939829   -1.683507
C       2.395105   -1.660461   -2.106509
C       2.239112   -0.187195   -1.574149
C       2.462897    0.905049   -2.512382
N       2.626396    1.761728   -3.272288
H       0.622930    2.142522   -0.253535
H      -0.962737    1.684378   -0.879416
H      -0.722315    1.884962    0.864891
H       0.781128   -0.104374    0.924974
H      -0.783825   -0.553369    0.269699
H      -1.035462   -1.160013   -2.213678
H       0.256900   -0.615365   -3.379570
H       0.599746   -2.860671   -1.234499
H       3.143950   -2.210431   -1.534505
H       2.614943   -1.761498   -3.172693
H       2.863858   -0.026601   -0.691305
