15

C      -0.204231    1.599637   -0.066598
C       0.033683    0.083343   -0.032210
O       0.885645   -0.275583    1.067292
C      -1.232485   -0.649953    0.057328
C      -2.267857   -1.247252    0.183923
C       0.751420   -0.347234   -1.350098
N       1.731678   -1.260795   -1.166570
O       0.411484    0.104453   -2.423597
H       0.760058    2.114108   -0.047761
H      -0.734846    1.868122   -0.980690
H      -0.791583    1.908309    0.802056
H       0.328109   -0.389447    1.843718
H      -3.183386   -1.778583    0.274016
H       2.013643   -1.505919   -0.233002
H       2.267412   -1.558747   -1.964303
