15

C       0.065447    1.552383    0.079398
C       0.038515    0.057549    0.058768
C      -0.020732   -0.724518   -1.049627
N      -0.071147   -0.418031   -2.405923
O      -0.028369   -2.076165   -0.660136
C       0.027004   -2.081219    0.686804
O       0.030798   -3.283248    1.289108
C       0.070048   -0.827333    1.200060
H       0.973554    1.929425    0.564160
H       0.030808    1.945299   -0.939199
H      -0.786557    1.960161    0.635840
H      -0.918529   -0.745820   -2.858841
H       0.724101   -0.774794   -2.926440
H      -0.009242   -3.959360    0.602577
H       0.117629   -0.561918    2.243049
