17

C       0.037042    1.420642    0.074836
C      -0.005907   -0.058701   -0.050381
N      -0.159531   -0.767462   -1.138252
C      -0.064865   -2.061951   -0.676952
C       0.155426   -2.084622    0.648491
C       0.047607   -3.452256    1.224394
C       0.129699   -4.257474   -0.127678
N      -0.304918   -3.329943   -1.222977
O       0.162190   -0.789271    1.095185
H       1.032379    1.766574    0.375855
H      -0.211566    1.863407   -0.890004
H      -0.675008    1.773254    0.827672
H       0.842061   -3.754572    1.913766
H      -0.912099   -3.622129    1.732673
H       1.169637   -4.572536   -0.283644
H      -0.501126   -5.148966   -0.114486
H       0.167590   -3.514986   -2.100183
