19

C      -0.154443    1.530214   -0.092260
C      -0.004933    0.023650    0.021939
O       0.714022   -0.440974   -1.117497
C       0.848727   -1.817476   -1.194919
C       1.579609   -2.200078   -2.500581
N       2.923574   -2.603107   -2.088342
C       2.893450   -2.643400   -0.815852
N       3.895726   -3.057444    0.019788
O       1.737336   -2.312502   -0.164912
H       0.826817    2.011855   -0.125525
H      -0.697229    1.796141   -1.003688
H      -0.704585    1.922682    0.768102
H       0.533264   -0.249683    0.938892
H      -0.991026   -0.466658    0.059019
H      -0.116069   -2.314029   -1.027456
H       1.068804   -3.018566   -3.022204
H       1.606212   -1.335793   -3.170930
H       4.802553   -3.085626   -0.420369
H       3.886565   -2.641113    0.938215
