21

C      -0.244318    1.502137    0.051748
C       0.112630    0.009019    0.075883
C       0.721134   -0.466946   -1.214060
C      -0.083060   -0.943963   -2.396050
C       0.911002   -1.876637   -1.738592
C       2.399917   -1.587889   -2.054597
C       2.700294   -0.403400   -2.929586
O       2.042596   -0.005595   -4.102734
C       2.208447   -0.134605   -1.547968
H       0.639718    2.116450   -0.150120
H      -0.978632    1.715235   -0.731551
H      -0.663683    1.825285    1.009761
H       0.806875   -0.187637    0.904847
H      -0.787621   -0.582826    0.283661
H      -1.114067   -1.179178   -2.140929
H       0.064611   -0.551100   -3.390540
H       0.603050   -2.804779   -1.273002
H       3.180050   -2.289390   -1.781879
H       3.780639   -0.238517   -2.983321
H       2.215926   -0.676578   -4.772238
H       2.819786    0.410787   -0.837488
