20

C      -0.167844    0.443093    1.359305
C      -0.287084    0.379713   -0.156843
O       0.915913   -0.090534   -0.779233
C      -1.495566   -0.437969   -0.676530
O      -1.429605   -0.500915   -2.090285
C      -1.604061   -1.830107   -0.072738
C      -0.678297   -2.929379   -0.515961
N      -2.526485   -1.969530    0.801541
O      -2.547727   -3.263097    1.346102
H       0.663282    1.093348    1.644873
H      -1.088044    0.833230    1.804038
H       0.002232   -0.550598    1.788437
H      -0.412878    1.391305   -0.559563
H       1.208198   -0.880158   -0.310523
H      -2.409455    0.098540   -0.401410
H      -0.486556   -0.475165   -2.305623
H      -0.241869   -2.698381   -1.487932
H       0.127758   -3.085591    0.213063
H      -1.221407   -3.874980   -0.579212
H      -3.323127   -3.228968    1.916289
