17

C       0.018342    1.534373   -0.310766
C      -0.023883    0.119429    0.273694
C      -1.398366   -0.516935    0.156857
N      -1.761474   -1.043238   -1.170773
C      -1.582783   -2.004551   -0.065682
C      -0.464971   -2.903892   -0.121444
C       0.454916   -3.677002   -0.139087
C      -2.448618    0.119229    0.925446
N      -3.288150    0.640331    1.527430
H       1.025409    1.952126   -0.228636
H      -0.260258    1.521485   -1.368602
H      -0.667745    2.205506    0.215645
H       0.680948   -0.531462   -0.249742
H       0.267724    0.129277    1.330069
H      -2.753076   -0.912279   -1.357695
H      -2.483756   -2.427540    0.372726
H       1.269492   -4.358515   -0.162890
