21

C      -0.188179    1.500554   -0.048987
C       0.067010    0.011596    0.065809
O       1.110017   -0.452250   -0.848189
C       1.877063   -0.954229    0.232291
C       2.748253   -2.197530    0.220588
C       3.621096   -1.512997    1.326378
C       2.936312   -0.133603    1.044724
C       1.840987    0.301530    2.055209
C       0.812738   -0.585280    1.296684
H       0.721498    2.082365    0.122121
H      -0.553882    1.737639   -1.052926
H      -0.948109    1.817428    0.673911
H      -0.860377   -0.537812   -0.141925
H       2.279409   -3.160831    0.442123
H       3.297268   -2.281669   -0.722907
H       3.428648   -1.894119    2.332818
H       4.697182   -1.539842    1.148112
H       3.577900    0.625286    0.594627
H       2.022756   -0.004321    3.089919
H       1.612864    1.370876    2.057165
H       0.246749   -1.322785    1.867044
