19

O       0.192016   -0.214460    0.143007
C       0.135148    0.982448    0.026448
C       1.325865    1.909394   -0.029930
C       1.321829    2.768711   -1.309310
C       2.426520    3.822389   -1.302001
C       2.510047    4.882496   -2.448342
C       2.685568    6.023101   -1.399389
C       2.282414    5.004809   -0.323141
O       1.876143    5.094893    0.800864
H      -0.849779    1.501938   -0.054270
H       1.274160    2.581735    0.836852
H       2.239163    1.312081    0.049214
H       1.435913    2.126115   -2.190822
H       0.349389    3.268669   -1.411362
H       3.403036    3.344629   -1.147715
H       3.322524    4.752779   -3.163746
H       1.567532    4.966743   -2.995129
H       3.725324    6.344254   -1.277985
H       2.055987    6.912016   -1.482974
