16

N      -0.053594    1.380742    0.203796
C      -0.061828   -0.017429    0.050590
C      -1.072228   -0.920092   -0.201570
O      -2.368557   -0.529598   -0.466220
C      -3.356907   -1.145859    0.227020
N      -4.560825   -0.897744   -0.053705
C      -0.522738   -2.233118   -0.204577
C       0.822501   -2.092506    0.045683
N       1.088116   -0.753994    0.199200
H       0.228767    1.856945   -0.649527
H      -0.989166    1.704539    0.424457
H      -2.975782   -1.823756    1.000201
H      -5.173849   -1.425430    0.564265
H      -1.047179   -3.155353   -0.398423
H       1.606130   -2.828120    0.117449
H       1.972583   -0.349875    0.453743
