15

O       0.886592    1.288579   -0.014602
C       0.385888    0.018970   -0.065517
C       0.347977   -0.873610   -1.112374
N      -0.264215   -2.016484   -0.637448
C      -0.605575   -1.856753    0.673941
C      -0.215312   -0.595478    1.068208
C      -0.368090    0.057544    2.415086
C      -1.027659   -0.806886    3.392780
N      -1.549834   -1.501369    4.154413
H       1.239888    1.525679   -0.877121
H       0.694855   -0.794975   -2.129481
H      -0.431492   -2.844789   -1.179211
H      -1.095784   -2.636447    1.233694
H       0.609042    0.351440    2.820114
H      -0.944736    0.988230    2.334690
