22

C       0.109111    1.593616    0.516657
C       0.005847    0.093763    0.179206
C       0.925692   -0.708719    1.114606
C      -1.454969   -0.354978    0.357910
C       0.474346   -0.071334   -1.306526
O       1.764745    0.459644   -1.486261
C       0.521475   -1.531727   -1.794895
N      -0.648823   -2.118309   -2.143018
O       1.595663   -2.109499   -1.870075
H       1.125790    1.956520    0.355945
H      -0.566550    2.187274   -0.110036
H      -0.165122    1.768274    1.562456
H       0.653272   -0.532704    2.160337
H       0.859191   -1.785200    0.927173
H       1.967267   -0.406647    0.978924
H      -2.121104    0.153603   -0.351454
H      -1.576547   -1.434835    0.235310
H      -1.804735   -0.099062    1.363310
H      -0.229503    0.490067   -1.941511
H       2.332008   -0.319162   -1.619482
H      -1.519761   -1.618129   -2.138924
H      -0.628777   -3.064177   -2.488632
