19

O      -0.245668    0.363870   -0.758878
C       0.103975    1.074145    0.157490
C       1.345555    1.859926    0.186567
C       1.791930    2.840557    1.272819
C       2.537372    3.670886    0.176926
C       4.004993    3.232537    0.070641
C       3.917875    1.716955   -0.269139
C       2.489944    1.539251   -0.784064
C       1.801026    2.847113   -0.917076
H      -0.535050    1.192804    1.063628
H       0.937961    3.384365    1.686768
H       2.399532    2.453957    2.099236
H       2.379913    4.748489    0.204009
H       4.500997    3.777887   -0.739831
H       4.562718    3.429062    0.991594
H       4.641931    1.431850   -1.037853
H       4.117138    1.087136    0.603847
H       2.242413    0.746067   -1.479653
H       1.219281    3.188980   -1.762268
