17

C       0.196877    0.767741    0.476765
O      -0.326881    0.317122   -0.757309
C      -1.518317   -0.430952   -0.641264
C      -1.262524   -1.848009   -0.169133
N      -1.370196   -2.138610    1.255402
C      -2.342737   -2.766993    0.336992
C      -3.758064   -2.325827    0.491126
O      -4.701159   -2.966395    0.099792
H       1.065334    1.388426    0.243520
H      -0.538281    1.373620    1.027655
H       0.512346   -0.058695    1.126896
H      -2.232211    0.067073    0.031485
H      -1.953296   -0.459087   -1.646511
H      -0.472610   -2.346502   -0.730513
H      -0.678174   -2.822215    1.549865
H      -2.237524   -3.818872    0.082715
H      -3.880691   -1.352579    1.013652
