12

O      -0.412893    0.208454   -0.933932
C      -0.204766    1.248751   -0.406028
O      -1.053203    1.921362    0.430337
C      -0.419678    3.084731    0.819150
C       0.778830    3.131977    0.245138
C       1.911852    4.100314    0.263479
C       1.619000    5.253175    1.112480
N       1.374192    6.157780    1.786437
O       0.942924    1.998251   -0.527354
H      -0.944901    3.745130    1.485624
H       2.824252    3.607893    0.623726
H       2.129546    4.446792   -0.754996
