15

N      -0.003468    1.376294    0.224481
C      -0.092423    0.031331    0.020654
N      -1.132582   -0.699545    0.063676
C      -0.661615   -2.072041   -0.106197
C       0.828844   -1.930847   -0.482486
O       0.988364   -2.158227   -1.874931
C       2.243270   -2.406864   -2.321383
O       2.497513   -2.532393   -3.478714
O       1.128731   -0.573574   -0.187351
H       0.764845    1.838287   -0.236834
H      -0.886444    1.860180    0.174007
H      -0.783660   -2.646453    0.819878
H      -1.203323   -2.591100   -0.901642
H       1.526006   -2.559899    0.077561
H       2.982176   -2.491233   -1.501895
