13

N       0.697246    0.663507    0.484475
C      -0.318784    0.334007   -0.348571
O      -0.556933    0.866431   -1.414494
C      -1.178079   -0.811870    0.141089
O      -0.809544   -1.475372    1.348067
C      -2.024863   -0.704634    1.356821
C      -2.072022    0.468272    2.185152
C      -2.157408    1.434214    2.894724
H       1.274188    1.456770    0.261283
H       0.806490    0.185400    1.362905
H      -1.538103   -1.450230   -0.663538
H      -2.926091   -1.316269    1.375831
H      -2.226508    2.294383    3.514481
