17

O       0.450136   -0.424754   -0.056101
C       0.273671    0.762951   -0.072926
C       1.388017    1.787993   -0.202989
C       0.939958    2.970700   -1.077330
C       1.983402    4.016335   -1.122782
N       2.802004    4.828313   -1.209246
N       0.524837    2.455255   -2.380044
C       0.452679    3.352017   -3.529242
C       1.514244    2.309356   -3.447021
H      -0.743928    1.200867    0.044173
H       1.638174    2.150209    0.802843
H       2.276115    1.302949   -0.615166
H       0.051492    3.428699   -0.622109
H      -0.414228    3.211756   -4.167294
H       0.770826    4.383737   -3.397327
H       2.527206    2.659320   -3.261831
H       1.437115    1.392359   -4.022147
