19

C       0.024961    1.393233   -0.263172
C       1.435178    1.925347    0.039493
C       2.205915    0.610025    0.166798
N       3.399594    0.595429    0.992266
C       3.789146   -0.802744    1.220505
C       2.692053   -1.517759    2.024061
N       1.317047   -1.230135    1.620517
C       1.157062   -0.277406    0.814393
O      -0.083154    0.145982    0.446823
H      -0.777145    2.047071    0.086411
H      -0.117658    1.208241   -1.335483
H       1.809119    2.592686   -0.740389
H       1.456761    2.451997    0.998470
H       2.387695    0.210297   -0.852368
H       4.152277    1.093865    0.529421
H       3.958508   -1.342959    0.270190
H       4.728557   -0.824081    1.781275
H       2.852914   -2.600936    1.969948
H       2.776817   -1.245808    3.084350
