13

N      -0.033707    1.409959    0.115442
C       0.043060    0.061227    0.028765
N      -0.992969   -0.730681    0.024660
H      -1.939223   -0.347203    0.040279
C      -1.037050   -2.113295    0.007462
C      -2.262904   -2.824288   -0.012296
O      -3.420162   -2.439768   -0.014984
O      -1.841054   -4.134746   -0.028515
N      -0.398159   -4.149213   -0.018286
N       0.016748   -2.946545    0.002894
H       0.787080    1.944995   -0.112075
H      -0.914751    1.882199   -0.016263
H       1.022483   -0.399950    0.010795
