12

N      -0.020891    1.233135    0.478792
C      -0.019770    0.089825   -0.054215
N      -1.182723   -0.543983   -0.426196
C      -1.259051   -1.788013   -1.011508
N      -2.389074   -2.292661   -1.321394
C       0.066617   -2.391894   -1.205829
N       1.184896   -1.864099   -0.885967
O       1.156741   -0.599177   -0.297875
H       0.926950    1.540432    0.684519
H      -2.041736   -0.041824   -0.248710
H      -2.271166   -3.212386   -1.742637
H       0.135854   -3.375669   -1.660108
