15

C       0.025669    1.447804    0.007214
N       0.031926   -0.005580    0.003467
C      -1.079996   -0.648574    0.009509
C      -2.427709   -0.042820    0.020468
N      -3.559827   -0.645785    0.026788
O      -3.524023   -2.049472    0.022817
C      -2.333846   -2.697015    0.012905
O      -2.508292   -4.022603    0.010703
C      -1.133612   -2.090859    0.006167
H       1.059382    1.802655   -0.001427
H      -0.473389    1.876759   -0.874752
H      -0.456789    1.871822    0.900726
H      -2.538728    1.036890    0.024196
H      -3.457527   -4.204950    0.016636
H      -0.225669   -2.676758   -0.001633
