14

O      -0.419977    0.109201    0.285516
C      -0.102879    1.257236    0.140938
N       1.182104    1.742307   -0.040535
C       2.364493    1.025420   -0.093340
N       2.542202   -0.223393    0.010001
C       3.990213   -0.430398   -0.120269
C       4.586920    0.991151   -0.320749
O       3.430046    1.858167   -0.285252
H      -0.823873    2.099206    0.134491
H       1.290438    2.739495   -0.147917
H       4.381581   -0.920815    0.777303
H       4.200244   -1.090852   -0.968212
H       5.267338    1.298355    0.477875
H       5.084482    1.126533   -1.284720
