21

C       0.015181    1.560501    0.020453
C       0.018507    0.040294   -0.009522
C       1.203358   -0.593986   -0.850645
C       1.912861   -0.726041    0.478293
C       2.928778   -0.250417    1.187344
C       2.413638    0.054004    2.592894
C       2.852631    1.408796    3.134890
O       0.968260    0.037467    2.463925
C       0.652642   -0.649591    1.271334
H       1.011493    1.951333    0.249622
H      -0.295165    1.968396   -0.947001
H      -0.671086    1.933970    0.786245
H      -0.970417   -0.347368   -0.270290
H       0.914809   -1.547697   -1.301941
H       1.677427    0.032929   -1.609359
H       3.919165    0.033905    0.853626
H       2.703138   -0.726817    3.316741
H       2.615710    2.206945    2.425238
H       2.337376    1.618411    4.076528
H       3.931132    1.415161    3.324123
H       0.142849   -1.598240    1.492220
