17

O       0.011825    0.090638    0.744290
C      -0.011045    1.123158    0.145560
O      -1.184511    1.714170   -0.184521
C      -1.201395    2.957758   -0.925498
C      -0.849400    2.696526   -2.400256
C       0.709973    2.718064   -2.422704
C       1.096913    2.989487   -0.958580
C      -0.056612    3.832213   -0.422287
O       1.135679    1.746189   -0.217930
H      -2.203930    3.356246   -0.769988
H      -1.274684    1.747864   -2.732928
H      -1.268854    3.486139   -3.030410
H       1.151538    1.781374   -2.767854
H       1.089156    3.518707   -3.064354
H       2.092128    3.415549   -0.831814
H      -0.077053    4.817375   -0.897726
H      -0.042681    3.954364    0.662736
