16

C       0.035864    1.540523    0.076019
C       0.071214    0.046141   -0.159278
C       0.707210   -0.671748   -1.284780
C       2.030760   -0.067360   -1.755655
O       2.102074    1.068824   -2.573189
C       2.414619   -0.038032   -0.265288
N       3.341110    0.389491    0.467406
N       1.256588   -0.803724    0.155678
H       0.962815    2.045986   -0.204286
H      -0.793789    1.987625   -0.481734
H      -0.124978    1.745920    1.139015
H      -0.826598   -0.452411    0.201572
H       0.225994   -1.519534   -1.760150
H       2.627315   -0.835640   -2.259075
H       1.512868    1.741416   -2.217934
H       4.038054    0.877975   -0.100024
