19

C      -0.078110    1.398366   -0.055935
N      -0.036141   -0.040881    0.023788
N       0.021503   -0.794022   -1.114310
C       0.052111   -2.055155   -0.694286
C       0.101607   -3.185771   -1.671571
C       0.038617   -2.127161    0.722605
N       0.069057   -3.229968    1.626201
C      -0.010766   -0.806761    1.139885
N      -0.117625   -0.290458    2.431112
H       0.919925    1.847083    0.030684
H      -0.498741    1.668926   -1.024860
H      -0.714021    1.790128    0.743001
H       0.996789   -3.803865   -1.532028
H      -0.764560   -3.849969   -1.565706
H       0.111560   -2.794802   -2.691170
H      -0.759033   -3.812051    1.539720
H       0.866743   -3.834062    1.452737
H      -0.049486   -1.060746    3.089358
H       0.590453    0.401230    2.651382
