21

C      -0.215063    1.390590   -0.107475
C       0.032507   -0.113893   -0.102710
C       0.795397   -0.619883   -1.340076
C       1.558516   -1.877018   -0.858637
C       1.286016   -1.916038    0.669855
C       2.443094   -2.358764    1.456402
N       3.348247   -2.725179    2.074221
N       0.888231   -0.550321    1.008367
C       0.302083   -0.431549    2.332750
H       0.736368    1.931405   -0.094662
H      -0.766079    1.676209   -1.008957
H      -0.807245    1.713083    0.753615
H      -0.946923   -0.633278   -0.049812
H       0.117858   -0.830922   -2.170640
H       1.499421    0.146769   -1.675587
H       1.207352   -2.797303   -1.329037
H       2.628441   -1.794650   -1.054879
H       0.467893   -2.634868    0.874948
H       1.010936   -0.794510    3.082221
H       0.088688    0.615895    2.557062
H      -0.637298   -1.007730    2.436565
