16

C       0.017150    1.497260   -0.108074
C      -0.033126   -0.002193   -0.046386
C      -1.150743   -0.716912    0.132134
C      -1.120017   -2.216754    0.186581
C       0.092956   -2.713573   -0.585765
O       1.297414   -2.049580   -0.180486
C       1.290121   -0.694017   -0.082892
O       2.336526   -0.106882    0.025803
H       0.661546    1.893950    0.681858
H       0.449411    1.835675   -1.055761
H      -0.982519    1.927058   -0.006686
H      -2.105213   -0.211458    0.259651
H      -1.085646   -2.561451    1.229875
H      -2.028978   -2.644255   -0.251395
H       0.280123   -3.777141   -0.423709
H      -0.056452   -2.548301   -1.661009
