17

C       0.741729    0.259932    0.882391
C      -0.270767    0.447496   -0.228294
O      -0.134851    1.257023   -1.120825
C      -1.436658   -0.415206   -0.159910
C      -2.401776   -1.138917   -0.097282
C      -3.584509   -1.963822   -0.059306
C      -4.846321   -1.343931   -0.622099
C      -3.411166   -3.434581   -0.041285
O      -3.756149   -2.735617    1.146303
H       1.573185    0.951346    0.738518
H       0.269588    0.435708    1.854981
H       1.107448   -0.772534    0.887790
H      -4.704348   -1.072368   -1.672029
H      -5.675653   -2.050586   -0.542277
H      -5.104690   -0.437279   -0.067827
H      -4.196940   -4.051940   -0.475506
H      -2.409172   -3.858433   -0.066026
