22

C       0.634258   -0.236674    1.328150
C       0.068635   -0.084403   -0.093204
C       1.045660   -0.658774   -1.126789
C      -1.351532   -0.663289   -0.171004
C      -1.911939   -1.282187   -1.426076
C      -1.603992   -2.150613   -0.231008
N      -2.313110    0.065453    0.627006
C      -2.813674    1.281709    0.273677
O      -2.566933    1.869585   -0.757135
H       1.599117    0.271831    1.419364
H      -0.037889    0.194297    2.076341
H       0.788328   -1.292629    1.579823
H      -0.041673    0.985432   -0.307498
H       1.174405   -1.741801   -1.016684
H       0.724702   -0.453155   -2.151036
H       2.031924   -0.202772   -0.995215
H      -2.949855   -1.073050   -1.652367
H      -1.270118   -1.361859   -2.293544
H      -0.745514   -2.810406   -0.283069
H      -2.436003   -2.545621    0.342335
H      -2.534095   -0.279992    1.548174
H      -3.499097    1.680561    1.050257
