15

C       0.063618    1.541868    0.023338
C      -0.045909    0.057966    0.034277
C      -1.096396   -0.776717   -0.043744
C      -0.606096   -2.197693    0.017580
O       0.813907   -2.094519    0.137165
C       1.187379   -0.782156    0.150963
O       2.325465   -0.417941    0.243007
C      -2.523291   -0.463858   -0.169644
O      -3.377584   -1.320768   -0.230705
H       0.706233    1.861413   -0.804261
H      -0.903819    2.038036   -0.066657
H       0.556308    1.885152    0.939525
H      -1.003397   -2.742925    0.880412
H      -0.852981   -2.767196   -0.884817
H      -2.783091    0.613564   -0.206564
