16

N      -0.210858    1.043623   -0.769638
C      -0.076685   -0.024918   -0.093863
C      -1.275391   -0.622746    0.622888
N      -1.298838   -2.075932    0.770397
C      -0.903646   -2.882314   -0.367100
C       0.000914   -2.750480    0.826479
C       1.270605   -1.982857    0.654192
O       2.362658   -2.435398    0.917750
N       1.122631   -0.702717    0.131654
H       0.678982    1.367165   -1.156401
H      -1.304379   -0.193664    1.632106
H      -2.177347   -0.297391    0.102107
H      -1.457424   -3.806253   -0.503219
H      -0.595328   -2.388426   -1.286574
H       0.090304   -3.572521    1.528670
H       1.992464   -0.247210   -0.115107
