16

C      -0.426321    1.338646    0.044998
C       0.053980   -0.129518   -0.064509
C       0.881792   -0.316456   -1.256949
C       1.564227   -0.445033   -2.237727
C       0.775216   -0.573076    1.184924
C       2.074563   -0.933815    1.354129
O       2.320143   -1.250010    2.633841
N       1.148567   -1.103108    3.367673
C       0.248953   -0.704967    2.503904
H       0.428193    2.010903    0.154427
H      -0.983312    1.624332   -0.850739
H      -1.077299    1.461354    0.915172
H      -0.839988   -0.759101   -0.178722
H       2.157682   -0.568033   -3.109949
H       2.905168   -1.014848    0.671650
H      -0.760318   -0.524386    2.848141
