16

N      -0.225247    1.336818    0.622890
C       0.005939    0.254064   -0.175255
O       1.087609    0.052622   -0.698212
C      -1.168831   -0.685418   -0.371805
C      -1.509820   -1.059071   -1.846837
C      -1.688724   -2.534490   -1.404865
C      -0.887435   -2.198475   -0.120631
H       0.527386    1.987040    0.780359
H      -1.114707    1.507987    1.056027
H      -2.057857   -0.349003    0.170792
H      -2.358310   -0.549998   -2.309739
H      -0.622230   -0.928123   -2.470152
H      -2.733870   -2.770556   -1.183839
H      -1.289352   -3.310829   -2.061270
H       0.179656   -2.396092   -0.246153
H      -1.227007   -2.620982    0.827809
