22

C      -0.100991    1.535477   -0.337790
C      -0.020669    0.104499    0.208222
C      -1.368697   -0.588604    0.204691
C      -1.890417   -1.302143   -1.022087
C      -1.542317   -2.093807    0.219007
C      -0.345764   -3.026963    0.195329
C      -2.701536   -2.617859    1.037710
O      -3.163134   -3.831629    0.453819
H       0.879130    2.022537   -0.322955
H      -0.466779    1.541215   -1.369880
H      -0.786643    2.147843    0.258420
H       0.699982   -0.467765   -0.386047
H       0.378534    0.127257    1.231151
H      -2.122678   -0.042787    0.771050
H      -2.935204   -1.193316   -1.293196
H      -1.220491   -1.390731   -1.872233
H       0.436899   -2.678938   -0.482691
H       0.097638   -3.131109    1.193574
H      -0.661268   -4.020650   -0.134535
H      -2.372243   -2.786405    2.076754
H      -3.506070   -1.865783    1.065371
H      -3.796479   -4.231413    1.056727
