18

C       1.037800    0.621150   -1.872818
C       1.465315   -0.673441   -1.212213
O       2.909821   -0.896382   -1.159116
C       2.800620   -1.338790    0.198924
C       2.414682   -0.212708    1.106776
C       2.930952    1.201917    0.957756
O       4.095763    1.404597    1.749314
C       1.344904   -0.928608    0.291148
H       1.417897    0.660876   -2.898976
H      -0.055907    0.663785   -1.918326
H       1.393089    1.503382   -1.338032
H       1.018336   -1.519713   -1.752542
H       3.324211   -2.246589    0.477238
H       2.364029   -0.523473    2.149651
H       3.128283    1.424739   -0.097024
H       2.194097    1.922820    1.327107
H       4.781405    0.826674    1.398547
H       0.510860   -1.428485    0.765658
