21

C      -0.471359    1.464007    0.131545
C       0.011672    0.003385    0.022508
C       0.595190   -0.258183   -1.356210
C       1.842923   -0.039844   -1.772021
C       3.016240    0.518670   -1.011309
O       2.737702    1.036729    0.277929
C       2.371477    0.042316    1.186900
C       1.421109    0.447700    2.267922
C       0.953948   -0.458172    1.141926
H       0.369898    2.158464    0.074606
H      -1.154930    1.694764   -0.691747
H      -1.007079    1.632430    1.071243
H      -0.886426   -0.621314    0.105890
H      -0.112630   -0.634133   -2.093128
H       2.088705   -0.277827   -2.807060
H       3.809034   -0.249121   -0.947575
H       3.445463    1.354263   -1.578652
H       3.173194   -0.660280    1.420650
H       1.550761    0.022845    3.257142
H       1.096346    1.481192    2.259672
H       0.828141   -1.504889    1.405559
