17

C      -0.040043    1.481809    0.020187
C       0.100513   -0.006215   -0.053621
C       0.021525   -0.893498   -1.287303
C      -0.267769   -2.016330   -0.275678
C       1.033762   -2.228520    0.514652
C       0.755622   -0.826900    1.038350
C       1.277743   -0.238401    2.231743
N       1.733132    0.232333    3.185762
N      -0.736443   -0.941877    0.765552
H       0.834099    1.974004   -0.419259
H      -0.929498    1.807715   -0.527774
H      -0.133521    1.816552    1.056593
H      -0.865704   -0.639701   -1.873477
H       0.889770   -0.990201   -1.946490
H      -0.930291   -2.845923   -0.508250
H       0.911094   -2.965401    1.311014
H       1.959689   -2.415469   -0.036642
