20

C      -0.255870    1.443122   -0.218012
N       0.044060    0.055536    0.096470
C       1.296323   -0.591618   -0.200230
C       2.530833    0.290730    0.086758
C       2.102416    0.372022    1.578615
O       2.972342   -0.446909    2.339510
C       1.975119    1.716865    2.286179
O       1.587555    1.514741    3.647765
C       0.809081   -0.429067    1.221372
H       0.611552    2.114073   -0.280415
H      -0.763870    1.471639   -1.187611
H      -0.947161    1.841719    0.531603
H       1.291962   -1.473180   -0.832126
H       3.471707   -0.255660    0.009406
H       2.610184    1.226953   -0.474056
H       2.743927   -0.268488    3.262813
H       2.959912    2.194221    2.327484
H       1.284393    2.394592    1.774011
H       0.661757    1.247824    3.650803
H       0.360721   -1.168825    1.878839
