19

N      -0.119637   -1.171674    0.009211
C      -0.057193   -0.018454    0.030049
C      -0.001140    1.441759    0.031877
C       1.432711    1.995969    0.029708
C       1.430350    3.526246   -0.113368
O       2.747716    4.038337   -0.075382
C       3.425136    3.695031    1.125910
C       3.480224    2.176448    1.304148
N       2.151437    1.559575    1.228266
H      -0.541003    1.810806   -0.847660
H      -0.544977    1.812914    0.910256
H       1.968872    1.582437   -0.834327
H       1.005905    3.840373   -1.072958
H       0.819777    3.969038    0.696034
H       4.426491    4.129486    1.048982
H       2.914721    4.154594    1.991155
H       4.101019    1.742759    0.510630
H       3.939529    1.915930    2.263343
H       1.615018    1.820671    2.053486
