21

C      -0.150770    1.528883   -0.121133
C       0.006902    0.011444    0.046881
C       0.858083   -0.338541    1.275002
C      -1.364187   -0.642561    0.146067
O      -2.227595   -0.328090   -0.971200
C      -2.490922   -1.711446   -1.246779
C      -1.526421   -2.181148   -0.122501
C      -0.369470   -2.943710   -0.542933
C       0.575535   -3.590104   -0.912223
H       0.825157    2.005248   -0.258272
H      -0.775025    1.761718   -0.987102
H      -0.618185    1.976229    0.764442
H       0.499462   -0.389044   -0.847989
H       0.390849    0.033984    2.194737
H       0.998146   -1.418523    1.375296
H       1.848331    0.121398    1.199063
H      -1.844914   -0.347294    1.091284
H      -3.542850   -1.975565   -1.082038
H      -2.197495   -1.996994   -2.262261
H      -2.035354   -2.698356    0.694673
H       1.412405   -4.159590   -1.233280
