23

C      -0.027242    1.477097    0.204697
C       0.025189   -0.036300    0.061704
C       0.696743   -0.502464   -1.235784
C       0.831085   -2.031262   -1.262284
C       1.507418   -2.532966    0.021786
C       0.795921   -1.965444    1.250434
C       1.486400   -2.281515    2.572678
O       0.803725   -1.698248    3.662897
O       0.737072   -0.539985    1.191079
H       0.983221    1.897487    0.192271
H      -0.597811    1.920682   -0.616747
H      -0.503533    1.757424    1.148320
H      -1.002818   -0.440930    0.088304
H       0.118207   -0.148641   -2.096742
H       1.689781   -0.038441   -1.297609
H      -0.167225   -2.482090   -1.345458
H       1.393436   -2.353262   -2.145000
H       1.500824   -3.628245    0.062758
H       2.556557   -2.210767    0.041148
H      -0.235223   -2.358950    1.292554
H       1.499396   -3.364330    2.735771
H       2.531844   -1.934694    2.518403
H       0.628461   -0.788416    3.392384
