21

C       0.081999    1.482516    0.123243
C      -0.019695   -0.038160   -0.096900
C      -1.397389   -0.523825   -0.087015
C      -2.556894   -0.861363   -0.078760
C      -3.921067   -1.357212   -0.059751
C      -4.548170   -1.571089   -1.479102
C      -4.093998   -3.053049   -1.436292
C      -3.966345   -2.927170    0.105862
O      -2.934348   -3.570023    0.787251
H       1.128742    1.800268    0.106814
H      -0.456038    2.024900   -0.658805
H      -0.349589    1.764526    1.087280
H       0.453943   -0.302431   -1.051216
H       0.557117   -0.558015    0.678774
H      -4.524686   -0.789339    0.654233
H      -5.635493   -1.467235   -1.442812
H      -4.156896   -0.944530   -2.280909
H      -4.768379   -3.816010   -1.830858
H      -3.107150   -3.181180   -1.890663
H      -4.899043   -3.216401    0.599444
H      -2.114603   -3.114822    0.551337
