24

C       0.106222    1.581179    0.199662
C      -0.071515    0.081670   -0.061096
C       0.640890   -0.447526   -1.329863
C       0.076982    0.197590   -2.599026
O       2.019360   -0.040634   -1.297446
C       0.589584   -2.006949   -1.370799
C      -0.828072   -2.600877   -1.366688
C       1.405659   -2.592683   -2.533903
H       1.163858    1.855796    0.181922
H      -0.407950    2.188842   -0.550958
H      -0.305569    1.851922    1.176782
H       0.317071   -0.480692    0.800691
H      -1.139632   -0.154090   -0.116741
H       0.214007    1.280485   -2.563085
H       0.597408   -0.169686   -3.486092
H      -0.990767   -0.010408   -2.708486
H       2.421669   -0.438734   -0.517074
H       1.077179   -2.330393   -0.436684
H      -0.774702   -3.694487   -1.375732
H      -1.405170   -2.309452   -0.485548
H      -1.391284   -2.297711   -2.256018
H       2.386606   -2.118181   -2.604450
H       1.548262   -3.669094   -2.393079
H       0.892822   -2.457780   -3.492151
