18

C      -0.685639    1.203140    0.058188
C       0.021271   -0.116551    0.195345
N       0.460730   -0.617600    1.286590
O       0.208808    0.205941    2.395603
C       0.225777   -0.920316   -1.045443
C       0.183064   -2.430981   -1.136000
C      -0.941445   -2.977900   -0.261667
O      -1.903571   -2.055418   -0.854100
C      -0.909575   -1.595632   -1.768041
H      -0.395563    1.696917   -0.874356
H      -1.767618    1.031361    0.011421
H      -0.475651    1.858375    0.902990
H       0.626491   -0.287632    3.108824
H       0.944875   -0.486122   -1.740908
H       0.978859   -3.012315   -1.580912
H      -1.210772   -4.009601   -0.513242
H      -0.853717   -2.851751    0.819721
H      -1.207297   -1.406825   -2.793529
