20

C       0.948605   -1.036149   -1.035636
C       0.110394   -0.468095    0.109270
O       0.260798    0.962214    0.191690
C      -1.333403   -0.863277    0.025881
C      -2.047975   -1.491068   -0.977276
C      -3.396729   -1.598259   -0.550032
C      -3.467010   -1.030428    0.701003
N      -2.219055   -0.582988    1.049296
C      -1.879536    0.038268    2.316456
H       1.979444   -0.687988   -0.936902
H       0.940860   -2.129912   -1.027388
H       0.565187   -0.699212   -2.004753
H       0.537978   -0.820030    1.057380
H      -0.239768    1.334375   -0.543837
H      -1.641213   -1.839168   -1.914240
H      -4.219635   -2.032636   -1.096335
H      -4.299769   -0.900239    1.374754
H      -1.391418   -0.671884    2.994822
H      -1.208031    0.881046    2.144028
H      -2.794141    0.396043    2.793172
