20

C       0.007100    1.520832    0.010501
C      -0.030948   -0.011401    0.002522
C      -1.481195   -0.520232    0.006363
C       0.716163   -0.548462   -1.236055
O       0.869823   -1.960997   -1.179297
C       1.554671   -2.343349   -0.017037
O       0.880360   -1.973415    1.155359
C       0.727279   -0.561572    1.228527
H       1.034625    1.901723    0.007854
H      -0.503585    1.929425   -0.868396
H      -0.495547    1.920022    0.898309
H      -2.023196   -0.158655   -0.874327
H      -1.508050   -1.611433    0.000755
H      -2.015241   -0.167942    0.895635
H       0.166945   -0.331521   -2.157265
H       1.708384   -0.069738   -1.307436
H       1.618213   -3.433188   -0.023120
H       2.569860   -1.898332   -0.019252
H       1.720123   -0.083581    1.296053
H       0.186395   -0.354478    2.156907
