20

C      -0.184365    1.300485    0.992623
N       0.148458   -0.096997    1.184581
C       1.009152   -0.757963    0.363656
O       1.563182   -0.245668   -0.593727
C       1.233542   -2.240124    0.697088
C       1.196641   -2.642018    2.172167
O      -0.117595   -2.489857    2.751850
C       1.666506   -4.077605    2.411399
O       1.595356   -4.418642    3.776900
H       0.388647    1.660695    0.137638
H      -1.252979    1.432543    0.786987
H       0.074623    1.895277    1.875626
H      -0.264000   -0.613714    1.948499
H       0.490525   -2.829620    0.140093
H       2.206218   -2.495415    0.267792
H       1.824758   -1.969348    2.766052
H      -0.730957   -3.013867    2.220345
H       1.060217   -4.761397    1.787561
H       2.709469   -4.190420    2.097513
H       0.757004   -4.061098    4.095656
