18

C       0.039106    1.424261   -0.056401
C      -0.076362   -0.074998    0.039326
O       0.969344   -0.675846   -0.733008
C       0.665571   -1.820359   -1.396604
N      -0.297336   -2.612303   -1.179710
C      -1.145431   -2.235583   -0.056213
C      -0.417463   -2.193577    1.336798
C      -0.545577   -0.671360    1.339032
C      -1.413688   -0.720836    0.061059
H       1.020384    1.754564    0.298022
H      -0.079463    1.756193   -1.092216
H      -0.728557    1.908576    0.552789
H       1.394935   -2.008484   -2.181709
H      -2.042381   -2.853671   -0.056744
H      -1.019790   -2.658796    2.120704
H       0.591900   -2.612592    1.363670
H      -0.665141   -0.045731    2.216267
H      -2.330551   -0.209389   -0.204432
