21

C      -0.038515    1.515324   -0.066429
C       0.055155    0.001455    0.025074
O       0.631778   -0.481766   -1.173375
C       0.743961   -1.896205   -1.252031
C       0.794338   -2.252456   -2.740989
O       1.117934   -3.617560   -2.920470
C       2.423040   -3.938231   -2.478243
C       2.771217   -3.320374   -1.153080
C       1.996236   -2.404551   -0.578032
H       0.955681    1.954797   -0.187102
H      -0.648718    1.809449   -0.925067
H      -0.492210    1.924974    0.841015
H       0.659993   -0.289384    0.899009
H      -0.945041   -0.441720    0.166077
H      -0.148612   -2.359099   -0.798580
H      -0.178005   -2.093538   -3.213148
H       1.528972   -1.593284   -3.229519
H       2.464808   -5.032465   -2.417414
H       3.172351   -3.634410   -3.233296
H       3.698276   -3.650489   -0.690872
H       2.259905   -1.971580    0.382856
