13

N      -0.104748    1.282664    0.009878
N       1.079764    1.921713    0.002371
H       1.001813    2.928298    0.008789
C       2.304879    1.334847   -0.012446
N       2.499893    0.044278   -0.021575
C       1.357092   -0.684763   -0.014970
C       1.079050   -2.030657   -0.019983
C      -0.349955   -2.094934   -0.006917
N      -0.987009   -0.921310    0.005714
C       0.028548   -0.018347    0.001271
H       3.145123    2.022495   -0.016449
H       1.770105   -2.858695   -0.031161
H      -0.926257   -3.014825   -0.006701
