19

C       0.029574    1.453914   -0.363082
C       0.012320   -0.018192   -0.045547
O       1.270703   -0.711098   -0.120530
C       0.640505   -0.612483    1.138277
C       1.282196   -0.025380    2.421894
C       0.648712    1.215472    3.036323
N       0.904594   -1.308217    3.066135
C       0.200429   -1.801997    1.964475
N      -0.531439   -2.798050    1.701016
H       0.908686    1.940179    0.065999
H       0.054289    1.602544   -1.447553
H      -0.870775    1.944270    0.021579
H      -0.815354   -0.585639   -0.473698
H       2.368780    0.087509    2.341173
H      -0.443200    1.137384    3.045940
H       0.991548    1.349593    4.068299
H       0.927006    2.115104    2.480175
H       0.637201   -1.415944    4.034618
H      -0.651035   -3.410253    2.509850
