16

O      -0.240311    1.533037    0.332456
C       0.068313    0.175539    0.050569
C      -1.247680   -0.568086   -0.127347
N      -1.982583   -0.143492   -1.301768
C      -2.567695    1.069791   -1.570825
N      -3.156932    1.094773   -2.725797
N      -2.939777   -0.168646   -3.230806
C      -2.217957   -0.989916   -2.397713
O      -1.861104   -2.142996   -2.539167
H       0.567408    2.051383    0.276891
H       0.670325    0.078660   -0.864011
H       0.626040   -0.289648    0.877766
H      -1.062249   -1.637269   -0.261172
H      -1.863954   -0.427622    0.767459
H      -2.516474    1.903514   -0.890916
H      -3.304811   -0.423884   -4.130961
