21

C      -0.458984    1.592924   -0.241151
C       0.372226    0.357348    0.098981
N       1.067759   -0.123586   -1.088098
C       1.927705   -1.047355   -1.025395
C       2.834814   -1.578055   -2.134401
O       3.588893   -0.594862   -2.794181
C       3.574335   -2.348877   -1.003353
N       2.519883   -1.882911   -0.091295
C       2.491702   -1.981255    1.346586
H       0.184222    2.395838   -0.614066
H      -1.187024    1.358165   -1.023127
H      -0.997290    1.959932    0.638747
H       1.078412    0.606220    0.906805
H      -0.293037   -0.425316    0.496484
H       2.324172   -2.241553   -2.844452
H       3.029108    0.191644   -2.820684
H       3.640016   -3.437995   -1.099332
H       4.564116   -1.926891   -0.792999
H       1.547450   -1.589419    1.726380
H       2.573705   -3.031007    1.652940
H       3.315253   -1.425366    1.818582
