17

O      -0.168906    1.311513    0.826134
C       0.016397    0.094852    0.121902
C       0.817866   -0.859449    1.025468
C      -0.227489   -1.817400    1.576209
C      -1.404368   -1.679473    0.947501
C      -1.368387   -0.610935   -0.110881
O      -2.458576    0.301777   -0.053268
C       0.078885   -2.741443    2.603443
C       0.387234   -3.508885    3.479881
H      -0.811134    1.820834    0.316471
H       0.529368    0.280910   -0.831050
H       1.579391   -1.408343    0.459942
H       1.335324   -0.304615    1.813319
H      -2.293370   -2.265158    1.149006
H      -1.420957   -1.041865   -1.118167
H      -2.520338    0.590027    0.865661
H       0.643714   -4.190379    4.252742
