17

C      -0.277308    1.291715   -0.032494
N       0.104800   -0.099625    0.123613
C       1.122140   -0.631675   -0.841805
C       1.969685   -1.152922    0.320604
C       1.003673   -0.425077    1.242599
C       1.058400   -1.939157    1.269470
O      -0.021479   -2.682868    0.819961
C       1.734800   -2.523230    2.403633
N       2.299333   -2.970757    3.308028
H       0.584379    1.979375   -0.082694
H      -0.859289    1.403009   -0.952247
H      -0.911432    1.593832    0.806691
H       0.730305   -1.361876   -1.555960
H       1.632739    0.177583   -1.375189
H       3.046508   -1.248925    0.344444
H       1.134963    0.219097    2.103999
H      -0.659921   -2.015034    0.511892
