21

O      -0.106511    1.435356   -0.108917
C      -0.046392    0.041618   -0.008845
C      -0.468764   -0.639570    1.262346
C      -1.363673   -0.693846    0.018225
C      -2.651084    0.118892    0.002164
C      -3.864562   -0.794848    0.219658
C      -3.946703   -1.872497   -0.872111
C      -2.605834   -2.510043   -1.130099
C      -1.453901   -1.984399   -0.709248
H       0.578130    1.803226    0.459483
H       0.760996   -0.418077   -0.580996
H       0.051357   -1.539855    1.572292
H      -0.809087   -0.003514    2.073438
H      -2.614354    0.910226    0.754605
H      -2.743097    0.620834   -0.969869
H      -3.776288   -1.281582    1.199186
H      -4.786738   -0.204470    0.239299
H      -4.675885   -2.642816   -0.590600
H      -4.331630   -1.435241   -1.806082
H      -2.596349   -3.445724   -1.683871
H      -0.517536   -2.504812   -0.902113
