23

C      -0.066036    1.642336    0.038643
C      -0.040546    0.110620    0.041864
C       0.519468   -0.435652   -1.298513
C       1.008449   -1.898061   -1.304019
C       0.176248   -2.905419   -0.484894
C       0.579062   -2.972855    0.998216
C       0.269759   -1.720155    1.849105
C       0.776307   -0.427763    1.220663
O       1.775820    0.130107    1.615715
H       0.955313    2.030875    0.056882
H      -0.571168    2.019343   -0.856251
H      -0.589282    2.036199    0.915441
H      -1.063126   -0.268252    0.152104
H      -0.265986   -0.307793   -2.052933
H       1.351569    0.206607   -1.609377
H       1.055983   -2.228996   -2.347296
H       2.041620   -1.933381   -0.935018
H      -0.896520   -2.690736   -0.582889
H       0.321445   -3.904970   -0.910006
H       0.084074   -3.827893    1.472010
H       1.656913   -3.171075    1.052310
H      -0.815744   -1.639917    1.986866
H       0.734858   -1.823905    2.833035
