18

N      -0.116788   -1.136437   -0.228438
C      -0.058068    0.010594   -0.103663
C       0.007019    1.472685    0.030114
N      -0.652367    1.905021    1.260023
C      -0.588715    3.363295    1.362085
C       0.851503    3.777139    1.667775
N       1.859811    3.103438    0.826938
C       2.299802    1.768423    1.237970
C       1.464040    1.943944    0.025924
H      -0.479017    1.897923   -0.869207
H      -1.611459    1.577889    1.267121
H      -0.933808    3.856525    0.434542
H      -1.246405    3.692423    2.171367
H       0.957970    4.857545    1.519015
H       1.075931    3.567949    2.718907
H       3.364883    1.574739    1.144017
H       1.816490    1.321237    2.103408
H       1.924502    1.894732   -0.958247
