17

C      -0.006565    1.436546   -0.065657
C       0.002412   -0.051660    0.009330
O       0.127068   -0.804575   -1.189330
C      -0.216992   -1.984498   -0.400690
C       1.061661   -2.234828    0.432013
C       0.705773   -0.928282    1.134726
C       1.262970   -0.363867    2.359748
O       2.250487   -0.786209    2.918392
C      -0.787218   -1.062951    0.737115
H       0.946393    1.810291   -0.452584
H      -0.806224    1.773319   -0.732518
H      -0.173375    1.874985    0.921603
H      -0.737629   -2.752283   -0.967284
H       0.956815   -3.082991    1.112471
H       1.997346   -2.300837   -0.128238
H       0.706080    0.511944    2.768133
H      -1.681101   -1.045135    1.345594
