18

C      -0.195707    1.374230   -0.124916
C       0.012941   -0.106991    0.058841
C      -0.724696   -0.900193    1.108225
C       0.772431   -0.741606    1.202969
C       1.592626   -1.864373    0.601525
O       0.988523   -2.143385   -0.666189
C       0.430335   -0.934413   -1.161660
C      -0.682426   -1.262143   -2.065217
N      -1.568041   -1.467545   -2.777514
H       0.687681    1.852750   -0.563461
H      -1.047865    1.573626   -0.784018
H      -0.398379    1.859867    0.833718
H      -1.332011   -0.334013    1.805393
H      -1.124115   -1.874133    0.843130
H       1.209580   -0.135927    1.988330
H       2.640725   -1.552535    0.474969
H       1.573186   -2.799146    1.169956
H       1.174754   -0.363131   -1.742125
