19

C      -0.188931    1.575120    1.035394
C      -0.098496    0.106217    0.656590
C       0.937538   -0.384511   -0.387565
O       2.200206    0.095953    0.169669
C       2.075110   -0.258351    1.497072
O       2.906269   -0.049853    2.327752
C       0.706854   -0.920757    1.539913
C       0.851022   -1.803652    0.235273
C      -0.294205   -2.732621   -0.140813
H       0.795004    2.016716    1.212040
H      -0.675206    2.146026    0.237282
H      -0.786401    1.702366    1.944025
H      -1.090552   -0.288853    0.433791
H       0.906994   -0.163777   -1.453241
H       0.371369   -1.298229    2.502835
H       1.799142   -2.345841    0.166678
H      -1.279607   -2.265975   -0.071141
H      -0.167595   -3.092204   -1.167756
H      -0.296591   -3.609228    0.514931
