18

C       0.303560    1.385104    0.309982
C       0.348508   -0.125213    0.071058
C       0.507055   -0.490552   -1.414814
O       1.708352    0.106481   -1.942024
C       2.805961   -0.668674   -2.099315
N       2.933509   -1.922866   -2.037399
C       1.755167   -2.736935   -1.796291
C       0.440418   -2.004499   -1.592161
O      -0.621543   -2.574995   -1.520381
H       1.213539    1.866966   -0.056201
H      -0.549482    1.839580   -0.205277
H       0.206545    1.603321    1.377235
H       1.176367   -0.573771    0.634841
H      -0.572914   -0.601611    0.421570
H      -0.317132   -0.052417   -1.987026
H       3.664295   -0.038481   -2.324542
H       1.621447   -3.440693   -2.627357
H       1.923669   -3.369674   -0.913293
