12

C       0.024108    1.463226    0.009282
C       0.011070    0.014089   -0.000909
C      -0.008638   -1.193172   -0.009168
C      -0.018198   -2.622135   -0.018927
O      -1.002784   -3.327523   -0.024678
C       1.373669   -3.289805   -0.022170
O       2.411348   -2.685249   -0.017166
C       1.328221   -4.762401   -0.032147
N       1.359487   -5.917980   -0.039902
H       1.047124    1.851432   -0.005162
H      -0.508382    1.857873   -0.862797
H      -0.477803    1.844525    0.905165
