22

C      -0.194254    1.625358   -0.165237
C      -0.034244    0.117585   -0.006073
C       0.944820   -0.648400   -1.016688
C       1.865858   -0.838328    0.201205
C       2.642827    0.370394    0.823768
C       2.079511   -0.471645    1.970072
C       0.734060   -0.613837    1.190126
N       2.491071   -1.794773    1.217700
C       3.908132   -2.143927    1.146824
H       0.749935    2.154368   -0.312457
H      -0.820552    1.840517   -1.038627
H      -0.689587    2.057111    0.710787
H      -1.035454   -0.319851   -0.038392
H       0.494211   -1.575444   -1.379877
H       1.347439   -0.082067   -1.862226
H       3.723801    0.381316    0.685356
H       2.237573    1.372579    0.698410
H       2.268802   -0.395488    3.045915
H       0.203689   -1.528185    1.460309
H       4.204170   -2.578592    2.107639
H       4.028657   -2.920546    0.384309
H       4.612316   -1.330927    0.912325
