17

C       0.083027    1.466099   -0.040765
O       1.187475    0.564254   -0.120219
C      -0.128248    0.014689    0.054537
C      -0.409718   -0.660212    1.337074
C       0.003334   -0.245754    2.750693
C      -0.484215   -1.656151    3.164826
O      -1.927030   -1.593363    2.953487
C      -1.633202   -1.584227    1.560899
C      -0.264033   -2.149212    1.685615
H       0.039377    2.073046    0.862258
H      -0.166067    1.989048   -0.963356
H      -0.506906   -0.497566   -0.832215
H       1.088615   -0.147028    2.823550
H      -0.501388    0.598486    3.231449
H      -0.199920   -2.143388    4.094305
H      -2.432733   -1.734861    0.847092
H       0.268214   -2.965208    1.217397
