19

C       0.086501    1.530081   -0.108610
O       1.551142    1.510096    0.008083
C       1.510567    0.199376    0.583713
C       1.747806   -0.287938    1.998805
C       0.989072   -1.534040    1.427433
C      -0.457135   -0.957436    1.226480
C       0.029776    0.018184    0.151339
C       0.517430   -0.927790   -0.992981
C       1.652645   -1.233863   -0.013115
H      -0.356279    2.156926    0.675818
H      -0.230889    1.887218   -1.093293
H       2.801626   -0.504314    2.198155
H       1.301090    0.241014    2.846409
H       1.112199   -2.513712    1.886384
H      -1.193841   -1.684737    0.874765
H      -0.832387   -0.490912    2.141253
H      -0.155014   -1.729185   -1.313007
H       0.877978   -0.372414   -1.861898
H       2.578072   -1.764144   -0.244522
