17

C      -0.211992    1.316138   -0.093088
O      -0.001481   -0.074900   -0.029493
C       0.622951   -0.479781    1.168865
C       0.859203   -1.975009    1.099394
N       2.043997   -2.428854    0.321581
C       2.508268   -3.339699    1.400513
C       1.476613   -2.674879    2.325272
O       1.262070   -2.662397    3.499338
H       0.735789    1.874910   -0.046552
H      -0.701285    1.529181   -1.046547
H      -0.858726    1.669444    0.725763
H       1.584848    0.039122    1.305591
H      -0.013381   -0.255132    2.042017
H      -0.084858   -2.465201    0.814519
H       1.816666   -2.890144   -0.550452
H       2.296224   -4.409003    1.255859
H       3.561437   -3.226182    1.679787
