21

C      -0.025053    1.516116    0.045239
C       0.031436    0.022291    0.005318
C      -0.027721   -0.767128   -1.072981
C       0.036597   -2.209146   -0.723159
C      -0.924206   -3.221820   -1.318353
C       0.535949   -3.272442   -1.673702
C       0.430696   -2.247198    0.764916
O       1.797346   -2.598781    0.955232
C       0.122915   -0.811931    1.268211
H       0.870844    1.936810    0.520192
H      -0.111455    1.944838   -0.957112
H      -0.880177    1.864854    0.639015
H      -0.127553   -0.418725   -2.096512
H      -1.318375   -3.989523   -0.660016
H      -1.627283   -2.872842   -2.067733
H       0.833239   -2.964451   -2.671018
H       1.143699   -4.061981   -1.245822
H      -0.126015   -3.005983    1.320768
H       2.320774   -2.029503    0.379744
H       0.906889   -0.480848    1.959392
H      -0.823082   -0.771129    1.826510
