18

C       0.242448    1.516046   -0.134066
C      -0.174114    0.058992    0.098226
C       0.607821   -0.577291    1.231177
C       0.710643   -2.077676    1.445357
C       0.072720   -3.051685    0.516771
O      -0.507318   -4.034826    0.904539
C       1.938191   -1.260789    1.005590
C       2.457789   -1.398788   -0.328056
N       2.882031   -1.490260   -1.400700
H       1.294525    1.582387   -0.427711
H      -0.356676    1.968227   -0.929131
H       0.105600    2.116866    0.771638
H      -1.242089    0.009061    0.341625
H      -0.038572   -0.508429   -0.827408
H       0.565911   -0.014457    2.160499
H       0.725639   -2.425629    2.472494
H       0.164693   -2.824817   -0.565181
H       2.707959   -1.136009    1.759529
