14

N      -0.020768    1.307835    0.006673
C      -0.000914    0.038378    0.002411
N      -1.181839   -0.693324    0.008947
C      -2.484417   -0.177860    0.020539
N      -3.424520   -1.037544    0.025049
C      -2.776553   -2.354157    0.016019
C      -1.269311   -2.097145    0.005289
N      -0.248785   -2.848792   -0.004825
H       0.928875    1.674831    0.000649
H       0.871859   -0.618906   -0.006350
H      -2.608611    0.897240    0.024827
H      -3.074787   -2.932783    0.897667
H      -3.088274   -2.927339   -0.864515
H      -0.518429   -3.831054   -0.005782
