22

C       0.132211    1.407163    0.137686
C      -0.042231   -0.122069    0.025604
C       0.702659   -0.683625   -1.216783
C       2.181069   -0.813317   -0.782362
C       2.161885   -0.911734    0.771124
C       0.675101   -0.847006    1.184162
C      -1.539364   -0.462679    0.007836
N      -2.226525   -0.016653   -1.090099
O      -2.099266   -1.060711    0.907062
H       1.191660    1.675109    0.195841
H      -0.297105    1.929997   -0.722427
H      -0.358841    1.787656    1.038786
H       0.294446   -1.670034   -1.465039
H       0.586468   -0.054959   -2.106781
H       2.653948   -1.682523   -1.247222
H       2.755402    0.059654   -1.106396
H       2.633620   -1.830392    1.129790
H       2.726831   -0.084591    1.211635
H       0.518677   -0.348238    2.144042
H       0.251196   -1.849664    1.283688
H      -1.755889    0.330388   -1.907186
H      -3.189703   -0.297673   -1.178326
