16

O      -0.030021    1.467579   -0.088182
C       0.038729    0.059010   -0.172432
C      -1.310252   -0.575669    0.136721
O      -2.266767   -0.079522   -0.846844
C      -2.768277   -1.173566   -1.464007
N      -2.404514   -2.333549   -1.112019
C      -1.425981   -2.133892   -0.010507
C      -0.166514   -2.824178   -0.276407
C       0.869496   -3.399564   -0.473159
H      -0.709727    1.751577   -0.709745
H       0.382535   -0.280931   -1.160334
H       0.775396   -0.272129    0.564908
H      -1.660086   -0.233608    1.114049
H      -3.485110   -0.956880   -2.248503
H      -1.859381   -2.560292    0.901938
H       1.782485   -3.911194   -0.654889
