13

O       0.008228   -0.013898   -0.057512
C      -0.034815    1.185536   -0.009879
C      -1.229414    2.068333    0.092309
C      -0.877942    3.358222    0.024885
C       0.609046    3.520283   -0.058135
N       1.283521    2.986768    1.146775
C       1.172808    2.141686   -0.085627
C       2.348722    1.782189   -0.816270
N       3.305538    1.490989   -1.397006
H      -2.225337    1.665195    0.216624
H      -1.550266    4.205833    0.075642
H       1.064596    4.333645   -0.610150
H       2.238737    3.346237    1.191490
