19

C       0.087358    1.522977   -0.009346
C       0.003151    0.006827   -0.011997
O       0.656968   -0.477917   -1.172041
C       0.641953   -1.878442   -1.281853
C       1.406303   -2.241066   -2.565354
C       2.842739   -1.699459   -2.476504
O       3.355248   -1.002058   -3.304848
C       1.462167   -3.685744   -2.749616
C       1.545871   -4.878807   -2.870032
H       1.131052    1.849082   -0.004072
H      -0.396065    1.935476   -0.899157
H      -0.409222    1.928808    0.876867
H       0.478181   -0.412493    0.890453
H      -1.048048   -0.325889   -0.008036
H       1.129928   -2.352656   -0.413508
H      -0.384564   -2.272352   -1.336304
H       0.929669   -1.754447   -3.422631
H       3.384778   -2.033958   -1.563476
H       1.607558   -5.931610   -2.996345
