19

C      -0.327797    1.528909    0.137813
C      -0.074818    0.029125    0.068030
C       0.463855   -0.548152   -1.249470
N       1.817579    0.027134   -1.442176
C       1.635666   -1.157906   -0.568505
C       1.184287   -0.618111    0.792980
C       2.197046    0.279031    1.518871
C       1.669343    0.850831    2.755427
N       1.234993    1.286475    3.734249
H       0.519487    2.089630   -0.264909
H      -1.212084    1.790244   -0.453806
H      -0.506906    1.856508    1.166095
H      -0.968487   -0.518915    0.379947
H      -0.106438   -0.908561   -2.097079
H       2.166526   -0.308656   -2.338767
H       2.160752   -2.083727   -0.770370
H       0.862608   -1.423260    1.457506
H       3.091448   -0.305371    1.767489
H       2.518461    1.083716    0.851560
