18

O      -0.113580    1.346925    0.119747
N       0.031999   -0.055546    0.049717
C      -1.103482   -0.624140   -0.046288
C      -2.485617    0.000253   -0.077332
C      -3.375191   -1.188425   -0.469782
C      -2.972414   -1.723634   -1.885519
C      -2.076106   -2.747867   -1.194775
C      -2.702542   -2.455958    0.148926
C      -1.251415   -2.101814   -0.071675
H       0.801240    1.639311    0.187502
H      -2.734236    0.384700    0.920386
H      -2.542035    0.842875   -0.772145
H      -4.439952   -1.036575   -0.299277
H      -3.813953   -2.210616   -2.384828
H      -2.508866   -1.009370   -2.575508
H      -1.752304   -3.698836   -1.601530
H      -3.077226   -3.112485    0.922647
H      -0.465467   -2.719387    0.344103
