16

O      -0.242113    0.174785    0.298127
C      -0.049120    1.295624   -0.038090
O      -0.976270    2.210104   -0.521053
C       0.044138    3.219616   -0.795158
C       0.251620    4.211323    0.366801
N       1.194968    3.263474    1.046285
C       2.645027    3.453694    0.688333
C       2.604661    2.227712   -0.266048
C       1.092740    2.298611   -0.128704
H       0.007790    3.540863   -1.835122
H       0.725783    5.151707    0.065086
H      -0.643511    4.428616    0.954989
H       2.841587    4.403034    0.175404
H       3.306141    3.378912    1.554674
H       3.022097    2.339884   -1.267731
H       3.003636    1.318288    0.188522
