19

C      -0.137998    1.549216   -0.002466
C       0.007047    0.027110   -0.007192
C       0.924978   -0.541658   -1.132328
C       1.969793   -1.276810   -0.298634
C       1.293437   -1.961174    0.919419
O       2.473389   -1.715842    1.756805
C       2.283514   -0.473445    0.997197
C       0.743754   -0.517272    1.222906
O       0.285031   -0.166357    2.482773
H       0.843159    2.037320    0.010751
H      -0.672758    1.897520   -0.891726
H      -0.685299    1.888129    0.882332
H      -0.993410   -0.424060   -0.061386
H       0.393770   -1.212411   -1.814427
H       1.367710    0.256521   -1.737339
H       2.796487   -1.800066   -0.775081
H       0.802478   -2.932922    0.993334
H       2.987603    0.341736    1.165945
H      -0.645771   -0.406219    2.547772
