21

C      -0.564975    1.452930    0.124146
C      -0.042837    0.029346   -0.127001
C       0.679077   -0.086446   -1.479915
C       0.832240   -0.461510    1.024348
C       0.165632   -1.084093    2.257733
C       0.909140   -1.961194    1.312402
O       0.223495   -2.794201    0.428328
C       2.099312    0.264346    1.311750
O       2.843466   -0.003886    2.228613
H       0.248934    2.186340    0.148548
H      -1.252783    1.756894   -0.671525
H      -1.099702    1.518302    1.077108
H      -0.904776   -0.644199   -0.167497
H       1.568204    0.552434   -1.526517
H       0.989645   -1.118338   -1.664281
H       0.016343    0.221098   -2.295449
H       0.622472   -0.866451    3.216629
H      -0.918475   -1.125947    2.236520
H       1.888162   -2.317100    1.629438
H      -0.206864   -3.485902    0.941583
H       2.345913    1.092500    0.614016
