17

C       0.143955    1.566510   -0.095770
C      -0.002306    0.081387    0.021024
C      -0.327714   -0.797653   -0.962990
O      -0.366648   -2.074657   -0.487965
C      -0.061029   -2.013351    0.836136
C      -0.031187   -3.309116    1.586115
C      -1.338098   -3.957557    1.699932
C      -2.410239   -4.490875    1.792441
C       0.171544   -0.725377    1.200892
H       1.152855    1.894044    0.179934
H      -0.047001    1.902777   -1.118647
H      -0.555724    2.092117    0.563975
H      -0.551338   -0.681085   -2.010989
H       0.672614   -4.000053    1.102155
H       0.370758   -3.109914    2.585826
H      -3.359854   -4.959076    1.871033
H       0.432123   -0.380768    2.190398
