19

C       0.475953    1.366538   -0.129440
C       0.072265   -0.062710    0.068468
C      -1.357669   -0.627346   -0.010827
C      -1.006285   -1.626547    1.139369
C       0.414093   -1.058746    1.169939
N       1.054069   -1.118414   -0.147475
C       1.241841   -0.888840    2.402570
N       2.550580   -0.594661    2.160436
O       0.753478   -0.973961    3.515719
H       1.497043    1.530412    0.223950
H       0.434968    1.637835   -1.191132
H      -0.193418    2.039326    0.415940
H      -2.120867    0.096633    0.283389
H      -1.637587   -1.053836   -0.980232
H      -1.543881   -1.415875    2.064045
H      -1.082617   -2.696197    0.918081
H       0.707299   -1.891681   -0.713321
H       2.910453   -0.717265    1.227735
H       3.179095   -0.542957    2.944631
