17

C       0.092076    1.569780   -0.092510
C      -0.010413    0.056776    0.013367
O      -1.355814   -0.385694   -0.006657
C       0.905597   -0.799773   -0.933197
C       1.343504   -1.633526    0.292712
O       1.951276   -2.650768    0.445979
C       0.671129   -0.634852    1.220212
C       1.257718   -0.038475    2.434426
O       0.105253   -0.872899    2.483611
H       1.131171    1.907426   -0.033217
H      -0.315643    1.917550   -1.049338
H      -0.480018    2.045270    0.710010
H      -1.757270   -0.078352   -0.826977
H       0.369958   -1.364402   -1.699482
H       1.737456   -0.256442   -1.391867
H       2.169303   -0.469021    2.845546
H       1.085401    1.016221    2.642463
