17

O      -0.009422    0.051882   -0.083122
C       0.007729    1.247410    0.016580
N      -1.005840    2.193657    0.079734
C      -0.111334    3.354083    0.029892
C       1.090046    2.346976    0.056525
C       1.510305    2.814416   -1.374252
C       0.327531    3.796221   -1.376667
C      -0.529625    4.292460   -2.472603
N       0.463617    5.177944   -1.829059
H      -1.959733    2.105568   -0.245901
H      -0.297821    4.119672    0.786476
H       1.841275    2.309186    0.841444
H       2.469026    3.336606   -1.390290
H       1.515327    2.033603   -2.137962
H      -0.302052    4.026566   -3.501418
H      -1.586651    4.453195   -2.270914
H      -0.002275    5.808981   -1.179753
