20

C       0.206277    1.484138    0.133769
C       0.201305   -0.044688    0.077418
C       0.530630   -0.581206   -1.329305
C       0.541450   -2.067841   -1.407669
N      -0.255825   -2.852696   -2.060243
C       0.198063   -4.134400   -1.766580
C       1.264725   -4.063484   -0.935255
C       2.161613   -5.051046   -0.286333
O       1.496736   -2.730848   -0.695508
H       1.186282    1.888388   -0.143522
H      -0.533193    1.909047   -0.553955
H      -0.029555    1.843388    1.140008
H       0.928204   -0.448444    0.791216
H      -0.779630   -0.427775    0.382465
H      -0.207412   -0.227730   -2.054502
H       1.508817   -0.193248   -1.642332
H      -0.276229   -5.012771   -2.175547
H       3.204749   -4.910938   -0.591777
H       2.126127   -4.972096    0.806170
H       1.857374   -6.062486   -0.565217
