18

C      -0.003572    1.568713    0.288641
C      -0.027393    0.063066   -0.002079
O       0.711236   -0.661035    0.984020
C      -1.418938   -0.468728   -0.137692
C      -2.094815   -1.096811   -1.135942
C      -3.409625   -1.384336   -0.628840
N      -4.456215   -1.957549   -1.363462
C      -3.425530   -0.910089    0.649094
O      -2.215702   -0.338207    0.956481
H       1.029892    1.903687    0.409402
H      -0.468659    2.132635   -0.526005
H      -0.554057    1.788922    1.208825
H       0.490606   -0.133383   -0.946387
H       0.194279   -0.635029    1.797117
H      -1.714148   -1.330490   -2.118661
H      -4.138963   -2.687843   -1.987855
H      -5.198460   -2.319220   -0.778878
H      -4.171715   -0.887454    1.424989
