13

O      -0.103531   -0.043317   -0.001518
C      -0.016578    1.157076    0.006685
C       1.254774    1.930682   -0.001072
N       2.380271    1.252440   -0.019223
N       3.495510    1.956811   -0.025808
C       3.667420    3.363028   -0.015985
O       4.784990    3.836820   -0.024346
C       2.394513    4.063422    0.004027
C       1.235362    3.362363    0.011024
H      -0.921044    1.806876    0.021549
H       4.350909    1.412060   -0.039873
H       2.431451    5.145884    0.012668
H       0.275558    3.871089    0.025875
