15

N      -0.000380    1.376276   -0.113631
C      -0.033943   -0.003360   -0.054346
C      -1.209188   -0.694121    0.022779
N      -2.455311   -0.044562    0.107047
C      -1.180059   -2.132109    0.073811
N      -2.220172   -2.859173    0.170257
O       0.099006   -2.702637    0.024417
C       1.182972   -1.913767   -0.085591
N       1.195458   -0.639993   -0.129113
H       0.906733    1.762903    0.105198
H      -0.764319    1.825839    0.375110
H      -2.617983    0.580816   -0.676055
H      -3.193390   -0.740811    0.144598
H      -1.987288   -3.849471    0.198715
H       2.095343   -2.498560   -0.135266
