17

C      -0.173633   -1.306912    0.134028
C      -0.091602   -0.111131    0.038482
C      -0.002387    1.342338   -0.053680
C      -0.173517    2.045096    1.355350
C       1.397522    2.120002    1.459126
C       1.377739    1.955555   -0.042276
C       1.599747    2.588857   -1.184655
C       0.404687    2.330871   -2.092473
O      -0.635709    1.837338   -1.223495
H      -0.244923   -2.364139    0.205203
H      -0.618671    3.032350    1.223261
H      -0.699704    1.477843    2.124565
H       1.846076    3.031099    1.857254
H       1.798096    1.253338    1.991833
H       2.385495    3.293381   -1.425969
H       0.046784    3.254676   -2.562441
H       0.605778    1.603063   -2.893860
