18

C      -0.065330    1.505601   -0.066501
C       0.011263   -0.021483    0.010564
C       0.747302   -0.495760    1.252911
O       0.772048   -1.921865    1.244655
C       1.394963   -2.496764    2.290088
C       2.022588   -1.973872    3.382141
O       2.493803   -2.979260    4.152885
N       2.177117   -4.192477    3.569008
C       1.528638   -3.903321    2.469275
H       0.933003    1.955578   -0.095589
H      -0.598283    1.823064   -0.966709
H      -0.593624    1.924057    0.797095
H      -0.995468   -0.454019    0.015197
H       0.522076   -0.422671   -0.871896
H       1.779160   -0.112901    1.270465
H       0.244976   -0.144727    2.167275
H       2.209502   -0.975004    3.736896
H       1.169136   -4.693425    1.826554
