23

C      -0.853898    1.184471    0.048624
C       0.068178   -0.034103   -0.003014
C       1.136341    0.008722   -1.125615
C       2.331109   -0.842717   -0.618259
C       1.927535   -1.359035    0.786594
C       3.100714   -1.633417    1.727963
C       0.879441   -0.327331    1.290170
C       1.531299    0.918384    1.845604
O       1.360642    1.343137    2.961319
H      -0.291042    2.112678    0.198401
H      -1.413018    1.287130   -0.887253
H      -1.579556    1.102538    0.864252
H      -0.554486   -0.923721   -0.164177
H       0.728335   -0.360319   -2.070928
H       1.448587    1.042786   -1.308769
H       2.570397   -1.673156   -1.288623
H       3.238630   -0.232881   -0.548732
H       1.372626   -2.296940    0.654256
H       3.705000   -0.734719    1.895250
H       2.755298   -1.986208    2.705084
H       3.761519   -2.400100    1.310165
H       0.250446   -0.735048    2.087257
H       2.211362    1.453899    1.141804
