17

C      -0.089994    1.563035   -0.086057
C       0.001444    0.047357   -0.041859
C       0.708593   -0.655116   -1.209983
O       2.047858   -0.151067   -1.255103
C       1.761464   -1.208044   -0.344588
C       1.127815   -0.586390    0.916075
O       1.995808    0.305499    1.576696
C       0.578943   -1.589496    1.819251
C       0.127065   -2.398222    2.586564
H       0.884505    1.996792   -0.316520
H      -0.807905    1.883283   -0.848811
H      -0.425534    1.963930    0.875953
H      -0.965467   -0.413853    0.175632
H       0.290719   -1.047745   -2.129240
H       2.353761   -2.113121   -0.407222
H       1.621795    0.499404    2.442822
H      -0.268351   -3.117171    3.261256
