21

O      -0.070259    1.437188    0.042999
C       0.017453    0.018349    0.017785
C       0.772862   -0.534681    1.231761
C       0.757691   -2.063200    1.254496
O       1.441537   -2.469825    2.432752
C      -0.681119   -2.590813    1.211053
C      -1.441209   -2.051157   -0.000221
O      -2.765977   -2.561352    0.077741
C      -1.413403   -0.518183   -0.018683
H       0.823802    1.788417    0.107067
H       0.537797   -0.307371   -0.900506
H       1.811563   -0.182404    1.232184
H       0.300554   -0.159809    2.147604
H       1.296580   -2.432719    0.363878
H       1.404047   -3.430624    2.480132
H      -0.688349   -3.687284    1.184482
H      -1.202303   -2.282810    2.125297
H      -0.950859   -2.424265   -0.916987
H      -3.267963   -2.196532   -0.658271
H      -1.958130   -0.140295    0.854735
H      -1.921793   -0.134445   -0.911588
