21

C      -0.098608    1.540223   -0.098864
C       1.275903    2.231884   -0.022557
C       2.193584    1.655648   -1.091743
C       3.362406    0.706261   -0.811971
C       3.454068    0.117494    0.550526
C       2.362674   -0.591403    0.846622
C       1.352044   -0.612656   -0.289521
C      -0.017948    0.013032    0.126965
C       2.062690    0.184000   -1.396716
H      -0.792695    1.984999    0.622402
H      -0.519007    1.737346   -1.092661
H       1.158782    3.309084   -0.177540
H       1.701304    2.101570    0.977817
H       2.346073    2.291829   -1.959228
H       4.254954    0.825275   -1.416399
H       4.293635    0.289839    1.214699
H       2.155351   -1.063519    1.801535
H       1.169813   -1.646431   -0.607338
H      -0.195788   -0.219790    1.183190
H      -0.825208   -0.475435   -0.428683
H       1.994738   -0.153029   -2.424187
