18

N      -0.348251   -1.180805   -0.183173
C      -0.142773   -0.044659   -0.096470
C       0.025971    1.376981    0.005663
C       0.480161    2.085388    1.276731
C       1.262695    1.323557    2.355114
C       2.670446    1.070444    1.793676
C       2.855155    0.077262    0.677741
C       2.691089    1.543583    0.350763
C       1.341644    2.157766    0.041050
H      -0.764606    1.898459   -0.528092
H      -0.142205    2.915466    1.592631
H       1.328445    1.953796    3.246786
H       0.759203    0.398625    2.657551
H       3.510693    1.256535    2.453451
H       3.853976   -0.326908    0.547822
H       2.069450   -0.628059    0.446599
H       3.545782    2.070256   -0.057526
H       1.348105    3.041323   -0.587054
