17

C      -0.236976    1.534148   -0.021816
C       0.213010    0.077087   -0.150295
C       0.781369   -0.485118    1.158312
O      -0.232262   -0.549895    2.212925
C      -0.188529   -1.984641    2.329644
C       0.852043   -2.043618    1.211501
O       1.437980   -2.884755    0.609859
C       1.995588    0.179558    1.600325
C       3.018078    0.698691    1.961360
H       0.604166    2.183707    0.236397
H      -0.664757    1.886594   -0.964606
H      -0.996623    1.633557    0.758259
H      -0.632223   -0.554729   -0.446596
H       0.983481   -0.031152   -0.921594
H       0.173532   -2.324299    3.308455
H      -1.148653   -2.467121    2.109352
H       3.917557    1.163621    2.283009
