15

N      -0.070288    1.386461   -0.379159
C       0.047425    0.195650    0.038916
N      -1.061565   -0.618848    0.145406
C      -1.261398   -1.776496    1.001713
C      -0.302303   -2.931011    0.713429
O      -0.660075   -4.036932    0.434431
O       1.027056   -2.652314    0.808543
C       1.432513   -1.368491    1.247207
O       1.279050   -0.369695    0.276505
H       0.846430    1.813589   -0.487133
H      -1.898226   -0.091486   -0.053649
H      -1.223284   -1.538885    2.078050
H      -2.256579   -2.168431    0.795404
H       0.922252   -1.096937    2.178575
H       2.504431   -1.452946    1.420729
