18

C       0.028359    1.565515   -0.002787
N       0.049939    0.106538   -0.014165
C       0.749020   -0.573998   -1.105858
C       2.273788   -0.577431   -0.833213
C       2.420592   -0.048267    0.552628
O       3.344098    0.350036    1.208365
C       0.999808   -0.571971    0.908969
C       1.286422   -1.635681   -0.227876
C       1.339271   -3.125602   -0.241799
H       1.019788    2.030168   -0.130033
H      -0.624681    1.917965   -0.807260
H      -0.391366    1.908416    0.947876
H       0.365971   -0.630104   -2.118895
H       3.022618   -0.729500   -1.598261
H       0.691697   -0.744211    1.938527
H       0.375706   -3.553587    0.054259
H       1.579104   -3.495050   -1.243682
H       2.103430   -3.502734    0.445818
