17

C      -0.127364    1.512259   -0.031556
C       0.127145    0.039793    0.032563
C       0.769527   -0.820738   -1.075769
C       1.073178   -2.137646   -0.373609
C       1.159880   -1.935106    1.125379
C       0.145480   -0.820416    1.245165
N      -0.967105   -0.969316    0.244536
C      -0.326528   -1.819882   -0.829333
H       0.808896    2.076601    0.052548
H      -0.604923    1.788894   -0.978003
H      -0.788918    1.822126    0.782650
H       1.230465   -0.478747   -1.991847
H       1.644968   -2.894180   -0.896314
H       0.867745   -2.829209    1.686698
H       2.154182   -1.619856    1.460551
H      -0.167508   -0.432313    2.208393
H      -0.941499   -2.414787   -1.490753
