22

C      -0.107833    1.608769    0.319167
C       0.018312    0.103541    0.070672
C       0.720027   -0.627087    1.221704
C       0.833006   -2.154563    1.026142
C       1.654754   -2.861275    2.124779
C       0.604909   -3.359157    3.144696
N      -0.578884   -3.504318    2.318103
C      -0.550783   -2.817533    1.134181
O      -1.470696   -2.737213    0.345896
H       0.873725    2.076433    0.459580
H      -0.597061    2.109943   -0.521768
H      -0.701535    1.814176    1.217257
H      -0.968673   -0.339941   -0.090186
H       0.582748   -0.070490   -0.855206
H       1.734344   -0.223752    1.344357
H       0.195565   -0.416911    2.165018
H       1.236641   -2.349537    0.028187
H       2.183682   -3.720914    1.703249
H       2.397869   -2.208569    2.589045
H       0.892048   -4.310366    3.604206
H       0.448292   -2.632865    3.955091
H      -1.446512   -3.894263    2.650929
