22

C       0.068754    1.497799    0.220398
C      -0.109019    0.012463   -0.117484
C       0.694819   -0.481453   -1.307936
C       0.846773   -2.026409   -1.486884
C       2.397811   -1.854160   -1.586432
C       2.232613   -0.318961   -1.444491
N       2.102937    0.558980   -2.681190
C       1.387170   -0.188988   -3.731740
C       0.593844    0.342664   -2.610567
H       1.118349    1.738056    0.417782
H      -0.269589    2.146841   -0.592580
H      -0.506632    1.760064    1.113380
H       0.166616   -0.589409    0.758325
H      -1.172865   -0.197375   -0.301703
H       0.527179   -2.591001   -0.606872
H       0.350658   -2.452872   -2.362797
H       2.931692   -2.287053   -0.736647
H       2.881234   -2.210906   -2.499525
H       2.849193    0.189671   -0.702429
H       1.350537    0.364883   -4.665909
H       1.546329   -1.253851   -3.863664
H      -0.094386    1.172299   -2.748422
