22

C      -0.422863    1.598915    0.103907
C      -0.082906    0.113505   -0.032433
O       0.644492   -0.126613   -1.241118
C       0.760137   -0.495777    1.086828
C       2.083159    0.151145    1.405988
C       0.952669    0.234394    2.398413
C       0.613905   -1.996894    1.137482
C       1.391309   -2.880577    0.235597
N       1.631993   -2.899720    1.691100
H       0.477137    2.215600    0.185049
H      -0.970831    1.930640   -0.785117
H      -1.062707    1.787841    0.970581
H      -1.033316   -0.445497   -0.061589
H       0.076054    0.112115   -1.980325
H       2.939098   -0.472049    1.644204
H       2.347523    1.041329    0.847046
H       0.474185    1.194014    2.552908
H       1.019464   -0.378485    3.291104
H      -0.397400   -2.310607    1.397991
H       0.946235   -3.785928   -0.167707
H       2.122147   -2.401297   -0.407979
H       2.487296   -2.391109    1.899884
