17

C       0.025054    1.512609    0.012072
N       1.244673    0.692807    0.088922
C      -0.067336    0.032585   -0.048929
C      -0.494192   -0.766380    1.146930
O      -1.941712   -0.940333    1.254807
C      -1.769202   -2.350052    1.426962
C      -1.196726   -2.967832    0.193924
C      -0.280325   -2.281057    1.191144
H      -0.234094    2.030951    0.931184
H      -0.178282    2.072971   -0.896346
H       1.725085    0.696235   -0.806419
H      -0.317791   -0.402709   -1.013607
H      -0.113234   -0.283163    2.054804
H      -2.377068   -2.849997    2.171653
H      -1.121963   -4.051026    0.201287
H      -1.416016   -2.530858   -0.776108
H       0.540812   -2.784667    1.681685
