18

C      -0.039501    1.539802   -0.016405
C       0.044695    0.015567    0.049671
O       0.768392   -0.476122   -1.088443
C       1.839210   -1.237198   -0.672380
N       2.663591   -1.809047   -1.445318
C       1.834492   -1.255968    0.792817
C       0.800549   -0.538094    1.235888
C       0.381253   -0.288351    2.644494
O       1.235706   -0.997037    3.517757
H       0.959288    1.981126    0.044944
H      -0.501017    1.846950   -0.958276
H      -0.648582    1.929069    0.805819
H      -0.971436   -0.405231    0.005260
H       2.421709   -1.627015   -2.420586
H       2.568348   -1.785616    1.379190
H       0.407325    0.797356    2.844185
H      -0.673133   -0.596194    2.765286
H       0.974970   -0.800423    4.421960
