18

C      -0.206887    1.465936   -0.010555
O      -0.142943    0.099100   -0.419994
C      -1.279343   -0.607825   -0.138570
C      -1.660362   -1.079593    1.247894
C      -1.471801   -2.079300    0.136742
N      -2.724938   -2.132114   -0.662173
C      -2.493554   -0.710192   -1.089434
C      -3.670240    0.220262   -0.889725
O      -3.565566    1.417422   -0.786586
H       0.726025    1.931810   -0.333711
H      -1.061763    1.974540   -0.470043
H      -0.294526    1.544490    1.081215
H      -0.834101   -1.032995    1.950354
H      -2.647124   -0.915841    1.672525
H      -0.773228   -2.905240    0.172891
H      -2.612755   -2.757206   -1.454481
H      -2.153487   -0.626006   -2.129591
H      -4.658951   -0.286925   -0.839297
