18

C       0.110875    1.367891    0.073523
N      -0.058302   -0.063852   -0.006625
C      -0.152279   -0.821565   -1.154893
C      -0.120291   -2.128173   -0.728136
N      -0.263439   -3.452539   -1.174651
C       0.199623   -4.292806   -0.030811
C      -0.040985   -3.437833    1.253165
C      -0.000530   -2.057002    0.667702
N       0.039191   -0.811826    1.117332
H       1.159303    1.665123   -0.053850
H      -0.490539    1.854365   -0.699057
H      -0.231216    1.695860    1.055794
H      -0.225605   -0.356086   -2.124031
H       0.210621   -3.674417   -2.040606
H      -0.344535   -5.240623   -0.013327
H       1.272678   -4.516911   -0.118997
H      -1.022646   -3.656651    1.691561
H       0.712745   -3.635591    2.019490
