21

C       0.051171    1.698205    0.014375
C       0.213016    0.182184   -0.140024
C       0.605393   -0.510256    1.163889
N      -0.432721   -0.460317    2.190927
C      -0.313283   -1.540148    3.061801
O      -0.880615   -1.684767    4.121022
N       0.588436   -2.417860    2.471422
C       0.860234   -2.046196    1.084191
C      -0.020648   -2.809264    0.088681
H       0.967288    2.160675    0.398198
H      -0.180929    2.166481   -0.946468
H      -0.764917    1.946299    0.701356
H      -0.719485   -0.249182   -0.517975
H       0.990236   -0.025720   -0.886544
H       1.533925   -0.043941    1.534581
H      -0.688848    0.417536    2.615086
H       0.508593   -3.388150    2.735462
H       1.913538   -2.225748    0.842980
H      -1.081589   -2.614276    0.269680
H       0.214640   -2.536980   -0.944469
H       0.149606   -3.886099    0.192281
