20

C       0.057408    1.535139    0.140545
C      -0.013849    0.039158    0.034039
C       0.778471   -0.700664   -1.074833
C       0.528226   -2.164811   -0.587625
C      -0.322477   -1.817918    0.650450
O       0.416661   -0.696174    1.231620
C      -1.308690   -0.789504    0.102592
C      -2.656751   -0.400998    0.524608
N      -2.402737   -0.985703   -0.824478
H       1.096695    1.862538    0.246175
H      -0.350567    2.003655   -0.761738
H      -0.506146    1.892320    1.006597
H       0.385109   -0.504681   -2.076736
H       1.833899   -0.418915   -1.053433
H      -0.022030   -2.772689   -1.310014
H       1.449089   -2.682122   -0.311480
H      -0.589025   -2.598247    1.361995
H      -3.232969   -1.036633    1.191281
H      -2.893748    0.658036    0.592597
H      -2.417061   -0.252274   -1.530788
