21

C      -0.119838    1.529146    0.011719
C       0.090515    0.024032    0.002582
O       1.198273   -0.461992   -0.008602
C      -1.177305   -0.827089    0.008341
C      -0.940554   -2.316161   -0.001346
C      -0.183588   -3.172087    1.063108
C      -0.675113   -4.180546   -0.013170
C      -2.035214   -3.427154    0.001471
C      -0.200508   -3.160867   -1.086463
H       0.844914    2.037617    0.007305
H      -0.704052    1.838731   -0.862235
H      -0.691473    1.829950    0.896972
H      -1.772781   -0.537973    0.886788
H      -1.786889   -0.528832   -0.857280
H       0.892274   -3.005981    1.135929
H      -0.651732   -3.245276    2.050114
H      -0.524827   -5.260331   -0.019991
H      -2.639337   -3.517156    0.909905
H      -2.653569   -3.507712   -0.898231
H      -0.684135   -3.223791   -2.066688
H       0.874086   -2.993918   -1.174469
