17

C      -0.003795    1.412595   -0.155946
N      -0.009422   -0.037727   -0.236043
C      -1.063817   -0.662323    0.082847
O      -2.201043    0.016466    0.502963
C      -3.309338   -0.689823    0.836292
C      -3.340025   -2.027165    0.771662
N      -2.241641   -2.771168    0.360296
C      -1.166661   -2.133698    0.034552
C       0.046685   -2.887162   -0.415993
H       0.977419    1.784397   -0.458486
H      -0.763912    1.860773   -0.810294
H      -0.213184    1.767053    0.862513
H      -4.126098   -0.050771    1.146823
H      -4.232926   -2.576672    1.041269
H      -0.165592   -3.956613   -0.404875
H       0.342409   -2.570668   -1.421385
H       0.899036   -2.663948    0.233705
