19

C      -0.124477    1.492623   -0.036856
C       0.016455   -0.024680    0.100934
C       0.728043   -0.429358    1.398364
N      -1.303009   -0.646338    0.000280
C      -1.499919   -1.842679   -0.591510
O      -0.673811   -2.514727   -1.162901
O      -2.835536   -2.189524   -0.452821
C      -3.231623   -3.374876   -1.006013
N      -4.439941   -3.709042   -0.890743
H       0.858127    1.970909   -0.000371
H      -0.604889    1.759438   -0.982086
H      -0.723798    1.907835    0.782574
H       0.586529   -0.415712   -0.746483
H       0.172776   -0.079288    2.275826
H       0.821906   -1.516670    1.459826
H       1.732067    0.004741    1.437566
H      -2.084627   -0.239996    0.490574
H      -2.413569   -3.902130   -1.497891
H      -4.589516   -4.607559   -1.347074
