14

C      -0.081081    1.565605    0.004615
C      -0.007571    0.046486    0.016468
C       1.218650   -0.651146   -0.656925
N       2.044271   -0.151228    0.529487
C       0.757949   -0.659094    1.182621
C       0.914468   -1.873871    0.239092
O       0.976247   -3.063912    0.249423
H       0.884076    2.010874    0.248383
H      -0.393343    1.922577   -0.982268
H      -0.822532    1.915169    0.730513
H      -0.970688   -0.410401   -0.226711
H       1.577065   -0.573373   -1.682019
H       2.829993   -0.778358    0.723557
H       0.590759   -0.590392    2.256239
