20

C       0.017733    1.439650   -0.295379
N      -0.068481    0.055788    0.264673
H       0.567676   -0.570794   -0.237014
H       0.252610    0.056492    1.235902
C      -1.435294   -0.553633    0.221896
C      -1.879181   -1.156766   -1.073888
C      -1.551753   -2.043571    0.112421
C      -0.333829   -2.936800    0.077288
C      -2.811494   -2.587449    0.911517
O      -2.736413   -3.782023    1.218368
O      -3.681267   -1.712115    1.097120
H       1.043685    1.805117   -0.222705
H      -0.307659    1.400206   -1.334023
H      -0.656059    2.078030    0.275783
H      -2.147820   -0.045928    0.863553
H      -2.924969   -1.019210   -1.322331
H      -1.185470   -1.139288   -1.913809
H       0.430895   -2.639162   -0.660683
H       0.137832   -3.012497    1.063850
H      -0.671982   -3.944243   -0.173775
