18

O       0.158250    0.994172   -1.000513
C      -0.016287   -0.045777   -0.059727
C       1.197911   -0.877272    0.259792
C       0.695286    0.155722    1.248816
C      -1.415045   -0.620768   -0.112475
C      -2.553484    0.331614   -0.350324
N      -2.159546   -0.603415   -1.397510
C      -1.775684   -1.821189    0.699006
O      -1.119127   -2.304103    1.589173
H       0.658069    0.641713   -1.743701
H       1.065379   -1.919896    0.515229
H       2.101279   -0.643216   -0.295143
H       1.251162    1.081249    1.341790
H       0.226319   -0.213637    2.151455
H      -3.523879    0.144730    0.101589
H      -2.272406    1.375262   -0.450011
H      -1.585918   -0.099554   -2.070910
H      -2.759482   -2.244734    0.401561
