17

O       0.022486   -0.007090    0.355689
C       0.027066    1.205536    0.221829
N      -1.073806    2.017961    0.153961
C      -0.741406    3.404419   -0.082816
C       0.762704    3.365149   -0.104010
C       1.213589    2.117860    0.085520
C       2.604490    1.640395    0.139179
C       3.017451    0.586824    1.116986
N       2.957497    0.275067   -0.310434
H      -2.007030    1.642897    0.146842
H      -1.154060    3.770920   -1.034168
H      -1.123218    4.063031    0.710696
H       1.360253    4.255971   -0.248839
H       3.344104    2.390424   -0.132072
H       4.015236    0.639173    1.544395
H       2.250502    0.169304    1.761364
H       2.091507   -0.237761   -0.473752
