15

C      -0.007387    1.459913   -0.076000
C      -0.049465   -0.035021   -0.025442
O       0.250566   -0.717321   -1.273647
C      -0.401018   -1.863713   -0.689961
C       0.365377   -2.229937    0.608546
C       0.633797   -0.856964    1.106922
N      -0.618087   -1.569483    1.534825
C      -1.249696   -0.986840    0.263093
H       1.010164    1.804721   -0.289203
H      -0.670216    1.840490   -0.857685
H      -0.317501    1.880664    0.885248
H      -0.730899   -2.616886   -1.401422
H       0.915377   -3.120277    0.884369
H       1.412736   -0.579848    1.806301
H      -2.311926   -0.759788    0.204964
