21

O       0.024669    1.442477   -0.090294
C       0.028557    0.020329   -0.054757
C      -1.412038   -0.472899    0.064855
C      -1.506293   -2.016301   -0.067002
C      -2.619442   -2.458312    0.913585
C      -2.734577   -1.281513    1.849080
C      -2.090707   -0.203479    1.399511
C      -2.077834    1.148076    2.041338
O      -2.884376    1.126251    3.209340
H       0.936104    1.746766   -0.126502
H       0.475807   -0.392513   -0.973284
H       0.616248   -0.356645    0.797971
H      -1.976861    0.024764   -0.738303
H      -1.686113   -2.337138   -1.096378
H      -0.552398   -2.458985    0.244503
H      -3.571917   -2.635944    0.393525
H      -2.376001   -3.396055    1.426771
H      -3.321583   -1.299994    2.758592
H      -1.042090    1.442065    2.272544
H      -2.439514    1.894575    1.313521
H      -2.823926    1.991442    3.623123
