13

C       0.002537    1.477134    0.099838
C       1.297188    0.735087    0.032386
O       1.999331    0.436055    1.244479
C       1.150644   -0.386645    1.911207
C       0.019403   -0.739100    1.252769
O      -0.677991   -1.569039    1.997837
N       0.144564   -1.716443    3.243693
N       1.174388   -0.994957    3.114425
C      -0.043807   -0.044659   -0.040440
H      -0.313460    1.915000    1.039649
H      -0.258391    2.048106   -0.784416
H       1.974075    0.851142   -0.803317
H      -0.424003   -0.511189   -0.940129
