18

C       0.612882    1.560151    0.179021
C       0.202345    0.098354    0.073464
N       0.601252   -0.723039   -1.137983
C       1.885620   -0.325631   -1.801716
C       2.730201   -1.215696   -0.865005
O       3.540949   -0.431095   -0.017303
C       1.370211   -1.695426   -0.259223
C       0.936461   -0.908128    0.979723
O       1.110270   -1.027006    2.156722
H       1.698510    1.674356    0.219505
H       0.223549    2.133946   -0.668396
H       0.194560    1.984392    1.096253
H      -0.884973    0.012003    0.197885
H       1.888074   -0.656072   -2.844059
H       2.139415    0.735814   -1.767441
H       3.309583   -2.008312   -1.355492
H       3.837309   -0.975212    0.721260
H       1.132407   -2.760917   -0.312706
