14

C       0.094776    1.551441    0.144062
C      -0.089746    0.039027   -0.065437
C       0.644549   -0.487537   -1.262115
C       0.151260   -0.954740   -2.439917
O       1.140373   -1.322008   -3.269785
N       2.358841   -1.099523   -2.638313
C       2.052912   -0.609689   -1.463588
H       1.150659    1.806590    0.278957
H      -0.274208    2.113491   -0.719122
H      -0.448864    1.889453    1.031426
H       0.246342   -0.493146    0.833035
H      -1.156009   -0.188298   -0.171658
H      -0.851344   -1.085037   -2.818079
H       2.852351   -0.356672   -0.780210
