19

C       0.130287    1.417925   -0.041432
C      -0.003624   -0.092523    0.025465
O       0.937052   -0.829278    0.182474
C      -1.442648   -0.645572   -0.103635
O      -1.436768   -1.998912   -0.511567
C      -1.789754   -2.835375    0.584773
C      -2.297828   -1.902931    1.656980
C      -2.877033   -2.402556    2.939318
C      -2.118671   -0.648510    1.248793
H       1.137915    1.716545    0.249768
H      -0.064400    1.755428   -1.066562
H      -0.607837    1.911911    0.599970
H      -1.985118   -0.045374   -0.851172
H      -2.552459   -3.556115    0.254657
H      -0.917122   -3.411726    0.930334
H      -2.150569   -3.019375    3.483010
H      -3.180357   -1.580527    3.592151
H      -3.752866   -3.037743    2.757789
H      -2.367070    0.251686    1.796288
