16

O       0.002689    0.011741    0.070132
C      -0.028284    1.210812    0.015639
C      -1.260836    2.134564   -0.019311
C      -0.565015    3.506305    0.063410
C       0.031784    3.723233    1.474002
C       1.267428    2.773174    1.434839
C       1.150844    2.195815   -0.001233
O       0.606940    3.289735   -0.747486
H      -1.782187    2.016203   -0.974340
H      -1.958492    1.899710    0.788084
H      -1.132274    4.343394   -0.341564
H       0.335282    4.763656    1.605560
H      -0.675825    3.474230    2.268590
H       2.203014    3.326780    1.535934
H       1.245987    1.995525    2.202092
H       2.064905    1.819793   -0.455860
