16

C       0.113430    1.459268    0.020744
C       0.068032   -0.032994   -0.010775
N       0.071627   -0.657749   -1.141700
C       0.017885   -2.043114   -1.119568
N       0.106977   -2.634897   -2.363607
N      -0.067128   -2.791298   -0.062393
N      -0.055283   -2.107240    1.120443
C       0.017557   -0.743758    1.285918
N       0.035588   -0.084086    2.391484
H       0.988304    1.792648    0.587987
H       0.142339    1.855404   -0.994328
H      -0.754685    1.848582    0.562029
H      -0.226787   -2.052777   -3.116261
H      -0.203454   -3.593911   -2.399957
H      -0.112397   -2.703424    1.931516
H      -0.007307   -0.704391    3.202285
