19

C      -0.191960    1.509897   -0.101678
C       0.088079    0.007991   -0.025809
N       0.803925   -0.487461   -1.187035
N       0.149234   -0.696101   -2.365706
C       1.086719   -1.093039   -3.219596
C       0.727700   -1.431173   -4.632095
C       2.364931   -1.140293   -2.607921
C       2.125875   -0.739157   -1.309561
O       2.923458   -0.568263   -0.228743
H       0.741119    2.080564   -0.125717
H      -0.763754    1.741431   -1.003793
H      -0.769814    1.831274    0.770492
H       0.689294   -0.233926    0.854035
H      -0.848547   -0.552931    0.037163
H       1.264804   -0.796904   -5.346315
H       0.976375   -2.471061   -4.872331
H      -0.344545   -1.289560   -4.783702
H       3.309218   -1.426045   -3.043279
H       3.816491   -0.837480   -0.463701
