21

C       0.299082    1.567492    0.079583
C       0.408217    0.042081    0.011919
C       0.351868   -0.607329    1.404806
C       0.543577   -2.112206    1.360053
C      -0.573256   -2.928096    0.739979
O       1.860242   -2.543533    1.019672
C       1.428213   -2.812728    2.348478
C       2.108241   -2.109386    3.477065
O       2.802040   -1.129065    3.376008
H       1.111324    1.994571    0.677437
H       0.348799    2.012730   -0.918810
H      -0.647177    1.878959    0.536415
H      -0.394219   -0.350615   -0.624218
H       1.353058   -0.242724   -0.464918
H       1.133266   -0.165836    2.027624
H      -0.613444   -0.387507    1.879780
H      -0.752221   -2.611984   -0.292131
H      -0.319093   -3.990406    0.728680
H      -1.505312   -2.793508    1.298385
H       1.198489   -3.859369    2.559564
H       1.905755   -2.577276    4.467664
