19

O      -0.014093    0.057479    0.323799
C      -0.047914    1.230502    0.059542
C      -1.322005    2.055268   -0.200301
C      -0.829908    3.391034   -0.719916
C       0.035234    4.289707    0.148618
C       0.413583    3.848221    1.564157
C       1.469003    2.733033    1.359990
C       1.171713    2.160349   -0.056120
C       0.683120    3.368943   -0.860348
H      -1.938644    1.532629   -0.938753
H      -1.915114    2.107667    0.720837
H      -1.425503    3.889714   -1.476233
H      -0.034308    5.351881   -0.058337
H       0.820879    4.684955    2.137860
H      -0.454434    3.480630    2.123982
H       2.472512    3.170855    1.349367
H       1.451352    1.961910    2.135933
H       2.022823    1.622641   -0.475622
H       1.200560    3.711114   -1.747283
