19

C       0.481351    1.404155   -0.017287
C       0.086059   -0.042016   -0.143369
C      -0.067736   -0.640461   -1.340669
C      -0.403573   -2.044154   -1.522152
C       0.064456   -3.040582   -0.751476
C       1.097228   -2.863151    0.324991
C       0.735689   -1.938268    1.495851
O       1.158136   -2.117967    2.607908
C      -0.196417   -0.771600    1.148789
H       1.406534    1.510080    0.563997
H       0.639810    1.866346   -0.994945
H      -0.285091    1.980586    0.516296
H       0.033542   -0.034750   -2.239550
H      -1.055756   -2.292957   -2.357176
H      -0.267046   -4.057186   -0.942617
H       1.429078   -3.814842    0.743985
H       1.984232   -2.377989   -0.114482
H      -0.210247   -0.094713    2.005294
H      -1.188248   -1.244274    1.074828
