16

C      -0.043575    1.404041   -0.064466
C       0.003415   -0.081078    0.020616
O       0.956889   -0.801125   -0.759700
C       0.197215   -2.005198   -0.477317
C       0.443973   -2.246031    1.031841
C      -0.334649   -0.945729    1.237195
C      -1.072866   -1.138689   -0.106382
C      -2.435362   -1.125194   -0.469440
N      -3.553549   -1.113667   -0.774281
H       0.879578    1.836410    0.334760
H      -0.159294    1.727914   -1.102267
H      -0.884595    1.790441    0.517775
H       0.280129   -2.770429   -1.244213
H      -0.111846   -3.108727    1.405408
H       1.490407   -2.286255    1.346311
H      -0.755466   -0.534913    2.145678
