21

C      -0.018311    1.508142    0.024617
C      -0.018608   -0.008276    0.026012
C       0.299151   -0.707782   -1.348176
C      -0.913613   -1.602622   -1.111684
O      -1.702500   -2.148589   -2.111208
C      -0.908961   -2.163555    0.303585
C       0.393852   -2.166578    1.103382
C       0.801538   -0.670066    1.149849
C      -1.389569   -0.753980    0.039777
H       0.992703    1.901596   -0.132476
H      -0.657620    1.906664   -0.769925
H      -0.384125    1.903749    0.979527
H       0.119638   -0.030476   -2.187971
H       1.285414   -1.174096   -1.465369
H      -1.323608   -2.997352   -2.365323
H      -1.659519   -2.927955    0.474940
H       0.238935   -2.574231    2.107074
H       1.164297   -2.784332    0.628045
H       1.878199   -0.517444    1.018095
H       0.523983   -0.228442    2.114508
H      -2.366955   -0.354777    0.277312
