14

C      -0.173698   -1.183632   -0.507757
C      -0.083745   -0.040995   -0.147485
C       0.027037    1.354433    0.274256
C       1.420797    1.915905    0.149219
C       2.122767    2.639432    1.091378
N       3.312659    2.957167    0.524962
N       3.444185    2.486319   -0.728834
C       2.297908    1.854584   -0.959453
H      -0.251088   -2.195462   -0.819814
H      -0.676930    1.956009   -0.317920
H      -0.309776    1.446356    1.314042
H       1.869682    2.941288    2.095815
H       4.071481    3.475392    0.933413
H       2.134377    1.364121   -1.907800
