18

O       0.010193    1.359568    0.400141
C       0.039410    0.009648   -0.029108
C      -1.366022   -0.555523    0.132810
C      -1.456982   -2.024272   -0.296276
C      -2.847763   -2.601491   -0.114934
C      -3.063655   -3.988751    0.345082
O      -3.245980   -2.887600    1.230559
C      -3.890620   -1.997097   -0.932696
N      -4.693497   -1.510773   -1.606874
H       0.890808    1.730719    0.294036
H       0.353258   -0.069901   -1.083425
H       0.751456   -0.585619    0.566966
H      -1.668072   -0.459068    1.181167
H      -2.058566    0.055170   -0.457228
H      -1.167153   -2.135556   -1.348729
H      -0.768887   -2.636987    0.296598
H      -3.970644   -4.516493    0.058254
H      -2.190042   -4.609726    0.536175
