15

O       0.221150    1.374683    0.125650
C       0.179889    0.012732    0.001338
C       0.294259   -1.002445    1.151386
O      -1.174728   -0.988398    1.474501
C      -1.083481   -0.938039    0.035081
C      -1.784990   -0.820079   -1.296011
O      -0.576955   -0.798926   -2.108040
C       0.548406   -0.902869   -1.167295
C       0.117871   -1.908518   -0.097272
H      -0.021278    1.764132   -0.723088
H       0.970473   -1.074606    2.000124
H      -2.409532   -1.673830   -1.576799
H      -2.347746    0.111320   -1.427721
H       1.472025   -0.912631   -1.741219
H       0.044284   -2.990519   -0.132077
