14

O      -0.008400    1.401632   -0.000431
C       0.004717    0.008408    0.008735
C      -0.510211   -0.731642    1.240811
C      -1.349943   -0.656164    0.002832
C       1.095992   -0.674336   -0.757564
O       1.142961   -1.879908   -0.901382
C       2.129709    0.196614   -1.297217
C       3.012074    0.889261   -1.734721
H       0.789879    1.718882    0.436941
H      -0.033435   -1.675245    1.479084
H      -0.780986   -0.099772    2.078742
H      -2.192853    0.024565   -0.002221
H      -1.445346   -1.548957   -0.603381
H       3.792416    1.491329   -2.133380
