19

O      -0.015829    1.353204    0.380442
C       0.019032   -0.003576   -0.048827
C      -1.392747   -0.517066   -0.081907
C      -2.047245   -1.070550    1.168590
C      -1.753666   -1.984340   -0.001294
C      -2.877613   -2.253389   -1.009481
O      -4.004528   -2.947432   -0.488712
C      -3.195954   -0.865137   -1.545292
C      -2.375831    0.064288   -1.054792
H       0.863840    1.725367    0.267171
H       0.467378   -0.085476   -1.051729
H       0.621460   -0.623712    0.634132
H      -1.424455   -1.197613    2.048573
H      -3.067595   -0.766758    1.380752
H      -0.991713   -2.742521    0.136692
H      -2.515683   -2.908425   -1.812039
H      -4.326326   -2.443242    0.267137
H      -4.027992   -0.697654   -2.219649
H      -2.397993    1.125587   -1.273376
