16

C      -0.087613    1.535344   -0.028431
C       0.005998    0.017112    0.074128
N      -1.321384   -0.580858    0.054628
C      -1.482757   -1.930123   -0.026002
N      -0.517082   -2.744707   -0.201271
C      -2.954855   -2.356014    0.028191
F      -3.071167   -3.650854    0.326139
F      -3.633587   -1.654082    0.956552
F      -3.563612   -2.148782   -1.146050
H       0.912184    1.977006   -0.014799
H      -0.584868    1.837916   -0.954880
H      -0.647039    1.958222    0.814144
H       0.568668   -0.400514   -0.765693
H       0.547884   -0.278629    0.983780
H      -2.072859   -0.057786    0.475143
H      -0.864103   -3.697963   -0.279036
