20

C      -0.113669    1.618062   -0.117875
C      -0.237462    0.094067   -0.177014
C       0.846504   -0.537000   -1.073361
O       2.128048   -0.167923   -0.638102
C       0.741972   -2.065592   -1.117813
O       1.697510   -2.724929   -0.760417
C      -0.542292   -2.702226   -1.611138
C      -0.406256   -4.195239   -1.907986
H       0.877489    1.904876    0.240439
H      -0.256707    2.063544   -1.108748
H      -0.863903    2.045464    0.554059
H      -0.138900   -0.328366    0.830773
H      -1.228392   -0.187212   -0.552444
H       0.686829   -0.177567   -2.106786
H       2.583302   -1.007733   -0.460147
H      -1.305861   -2.530756   -0.839490
H      -0.894282   -2.145369   -2.488891
H       0.325272   -4.372104   -2.701196
H      -0.065339   -4.736788   -1.022947
H      -1.365617   -4.612410   -2.225370
