23

C       0.129452    1.502823    0.053016
C       0.065764    0.048520    0.004683
C       0.026504   -1.154876   -0.034194
C      -0.044642   -2.611972   -0.066618
C      -1.489586   -3.173378   -0.076439
C      -2.245073   -2.721847   -1.332835
C      -1.442156   -4.702408    0.074578
C      -2.803403   -5.367568    0.242025
O      -2.575149   -6.745827    0.503328
H       0.992580    1.844459    0.635408
H       0.217369    1.934105   -0.950493
H      -0.768331    1.926940    0.516603
H       0.488061   -2.988787   -0.951476
H       0.489103   -3.020224    0.801544
H      -2.001701   -2.756007    0.801380
H      -3.299983   -3.008617   -1.298269
H      -2.196324   -1.634874   -1.440888
H      -1.806237   -3.170311   -2.232779
H      -0.938424   -5.148931   -0.792959
H      -0.839888   -4.966736    0.952558
H      -3.348772   -4.890369    1.073757
H      -3.412322   -5.236346   -0.664976
H      -3.428542   -7.184145    0.567194
