18

C      -0.190887    1.535912    0.067068
C       0.021266    0.044584   -0.024656
C       0.595068   -0.672040   -1.214769
C       1.361481    0.121263   -2.202058
C       2.442558    0.677285   -1.628145
C       2.509703    0.255802   -0.161741
N       1.336456   -0.609111    0.074973
C       3.395921    1.537117   -2.216490
C       4.244561    2.266900   -2.664621
H       0.446886    2.101269   -0.614673
H      -1.233006    1.774816   -0.168610
H       0.002881    1.885531    1.087830
H      -0.724716   -0.524040    0.530181
H       0.180250   -1.632139   -1.513684
H       1.076950    0.229825   -3.240587
H       3.424981   -0.311471    0.045059
H       2.508666    1.119370    0.514720
H       4.983394    2.908691   -3.076351
