13

O      -0.132611    1.364811   -0.121885
C      -0.006089   -0.012081   -0.025507
C      -0.454094   -0.718860    1.249690
C      -0.863262    0.100868    2.348904
N      -1.156279    0.813953    3.211480
C      -1.340477   -0.730907   -0.027296
O      -2.475612    0.043574   -0.060857
C      -1.449825   -2.001282   -0.705667
N      -1.499073   -3.027138   -1.235519
H       0.135344    1.782307    0.707032
H       0.829487   -0.444371   -0.568763
H       0.055530   -1.641318    1.504779
H      -2.184644    0.949456   -0.253704
