16

C       0.001470    1.526956   -0.078507
C       0.003894    0.016099   -0.029074
N       0.339950   -0.562729   -1.323928
C       0.363454   -1.826976   -1.366759
O       0.106958   -2.657381   -0.328810
C      -0.203331   -1.953419    0.860150
C       0.622039   -0.692299    1.226137
O      -0.521569   -0.257302    2.041554
C      -1.126569   -0.709703    0.780098
H       0.986335    1.891497   -0.386139
H      -0.722279    1.874490   -0.822076
H      -0.251527    1.945430    0.896782
H       0.599793   -2.379741   -2.271678
H      -0.399282   -2.667489    1.656203
H       1.622380   -0.611732    1.649415
H      -2.208745   -0.649864    0.672160
