22

C      -0.023487    1.601645    0.021025
C       0.140291    0.082232    0.144914
C       0.756400   -0.532198   -1.099505
C       0.666487   -2.029578   -1.392895
C      -0.795713   -1.849409   -1.900707
C      -0.525879   -2.525010   -3.254399
C      -1.364252   -2.132082   -4.460130
C       0.730154   -1.709298   -2.914699
N      -0.112771   -0.524487   -2.362445
H       0.946574    2.093170   -0.112857
H      -0.643960    1.851738   -0.844436
H      -0.491927    2.026014    0.914147
H       0.779632   -0.158070    1.004835
H      -0.832796   -0.380572    0.348575
H       1.735703   -0.075830   -1.303004
H       1.094627   -2.892407   -0.869277
H      -1.716961   -1.827909   -1.316163
H      -0.380683   -3.609463   -3.185329
H      -1.489385   -1.047199   -4.504809
H      -0.891435   -2.463108   -5.391354
H      -2.357381   -2.592306   -4.414015
H       1.623702   -1.509413   -3.511055
