16

C      -0.069743    1.551508    0.111912
C       0.014589    0.033912   -0.025352
C       0.721004   -0.464529   -1.262059
N       1.195574    0.406541   -2.107810
C       1.846674   -0.003098   -3.248534
O       2.319991    0.697103   -4.090276
O       1.978991   -1.417600   -3.462843
C       1.483387   -2.278005   -2.580042
C       0.844774   -1.881297   -1.461691
H       0.926069    1.999835    0.137411
H      -0.601202    1.993708   -0.733797
H      -0.596159    1.816529    1.033077
H       0.523592   -0.409456    0.842454
H      -0.988936   -0.415259   -0.019723
H       1.653837   -3.311332   -2.866460
H       0.449176   -2.598732   -0.756348
