21

C       1.016880   -0.574458   -0.816060
C       0.043801    0.179904    0.098544
C      -0.154529    1.625727   -0.389867
C      -1.315710   -0.489167    0.229120
O      -1.902088   -1.060914   -0.961503
C      -1.609324   -1.918326    0.123561
C      -0.767739   -3.191884    0.037510
O      -1.805871   -3.935406    0.711575
C      -2.666916   -2.779676    0.809441
H       1.927098    0.014042   -0.964340
H       1.316983   -1.538829   -0.398488
H       0.560970   -0.751947   -1.793856
H       0.466675    0.220690    1.112963
H       0.800214    2.159019   -0.425487
H      -0.586686    1.636323   -1.396177
H      -0.827255    2.183260    0.270153
H      -2.031084    0.098935    0.811240
H      -0.585625   -3.548614   -0.983657
H       0.170737   -3.203859    0.604044
H      -2.907600   -2.529625    1.850375
H      -3.594063   -2.894371    0.234065
