17

C      -0.021505    1.463321   -0.024147
N      -0.018289    0.014652   -0.025260
C      -1.178491   -0.776471    0.044943
N      -2.373188   -0.397061    0.230074
C      -0.755550   -2.217793   -0.177456
C       0.762514   -2.206511    0.019965
O       1.447763   -3.011732   -0.905894
C       1.136000   -0.731945   -0.144396
O       2.251854   -0.308346   -0.348891
H       1.008856    1.792240   -0.164227
H      -0.641628    1.848787   -0.839665
H      -0.402519    1.852661    0.925968
H      -2.444850    0.614878    0.342771
H      -1.299609   -2.892207    0.483166
H      -0.973973   -2.501779   -1.212080
H       1.017072   -2.487433    1.056191
H       2.329983   -2.626609   -0.997739
