18

N      -0.294518    1.242772    0.029874
C      -0.091307   -0.104403    0.147706
O       0.858299   -0.625459    0.680628
O      -1.137402   -0.772134   -0.411457
C      -1.101223   -2.182351   -0.271852
C      -1.889027   -2.890799    0.777019
C      -3.199882   -2.151447    1.068918
C      -3.583058   -2.238489   -0.442374
C      -2.268868   -2.975786   -0.730844
H       0.507142    1.825977    0.197919
H      -0.987504    1.570822   -0.621254
H      -0.119357   -2.594256   -0.474011
H      -1.425087   -3.629029    1.420595
H      -3.876359   -2.732111    1.698694
H      -3.095107   -1.149987    1.495400
H      -4.458208   -2.869514   -0.608261
H      -3.722740   -1.293029   -0.972795
H      -2.152799   -3.794017   -1.432503
