15

C      -0.015509    1.482996    0.057767
C      -0.001986   -0.004907   -0.045581
C      -0.045854   -0.823201   -1.147175
C      -0.004323   -2.169097   -0.654912
C       0.062786   -2.093045    0.728337
N       0.099849   -3.367143    1.159769
N       0.056684   -4.212205    0.060964
N      -0.005397   -3.486755   -1.013027
N       0.065309   -0.791079    1.123299
H       0.889385    1.871743    0.541934
H      -0.071248    1.921506   -0.940649
H      -0.876751    1.849467    0.630759
H      -0.100562   -0.486009   -2.170023
H       0.150679   -3.768621    2.079626
H       0.107257   -0.428552    2.058847
