18

O       0.117268    0.938590   -1.130856
C       0.038363   -0.026152   -0.108912
C       1.293491   -0.783718    0.230485
C       0.778337    0.302149    1.155556
C      -1.327129   -0.693696   -0.036032
C      -2.525270    0.146682   -0.341798
N      -2.087943   -0.880791   -1.296263
C      -1.452720   -1.765666    0.920925
C      -1.549548   -2.641283    1.739481
H       0.563484    0.539565   -1.884597
H       1.200065   -1.814852    0.549232
H       2.176529   -0.558989   -0.359074
H       1.307208    1.247718    1.164981
H       0.339968   -0.001268    2.098944
H      -3.461071   -0.065253    0.165201
H      -2.339026    1.188008   -0.585410
H      -1.568147   -0.413795   -2.037335
H      -1.647389   -3.421926    2.452765
