20

C      -0.110947    1.176602   -0.664909
C      -0.024793   -0.180069    0.026739
O       0.422009   -0.028898    1.389118
C      -1.338208   -0.970590   -0.045713
C      -1.233131   -2.374494    0.566079
O      -0.981597   -2.341803    1.955169
C      -2.537475   -3.183224    0.415286
C      -2.890508   -3.448878   -0.974816
N      -3.151907   -3.640956   -2.084195
H       0.836164    1.713997   -0.567573
H      -0.337846    1.060259   -1.728758
H      -0.904740    1.791019   -0.221606
H       0.769375   -0.773499   -0.442567
H      -0.142833    0.630623    1.809628
H      -2.130417   -0.411845    0.473110
H      -1.637578   -1.057596   -1.096790
H      -0.434455   -2.923042    0.036695
H      -0.305265   -1.659551    2.090425
H      -2.416931   -4.131593    0.948517
H      -3.355997   -2.642911    0.903707
