18

C      -0.141246    1.539874   -0.039779
C       0.027371    0.043304    0.075605
C       1.386377   -0.641205   -0.164390
C       2.567736    0.119867   -0.429583
C       3.566263    0.756229   -0.650317
C       0.711678   -0.633123    1.217987
C       1.325332    0.122525    2.371809
O       0.091099   -1.836838    1.585194
H       0.761614    2.078450    0.256437
H      -0.360467    1.818980   -1.075508
H      -0.970719    1.889200    0.584304
H      -0.802630   -0.538767   -0.314737
H       1.326591   -1.598506   -0.673804
H       4.449260    1.311201   -0.848444
H       1.821717    1.037112    2.044228
H       0.556874    0.377316    3.108350
H       2.081736   -0.496312    2.870140
H       0.759390   -2.402767    1.988854
