20

C      -0.237877    1.548949    0.018541
C       0.061710    0.063075    0.064854
C       1.242782   -0.597652   -0.707992
C       2.242685    0.033624    0.303266
C       1.063655   -0.569883    1.111035
C       0.848935   -0.655179    2.582910
O       1.398851    0.052589    3.389922
N       1.019754   -1.796591    0.205222
C       2.084463   -2.791893    0.321386
H       0.647766    2.182369    0.098900
H      -0.739279    1.795455   -0.923894
H      -0.918418    1.825763    0.830481
H      -0.846953   -0.538651   -0.011615
H       1.352798   -0.721932   -1.787175
H       3.211323   -0.450082    0.417301
H       2.362675    1.116461    0.306259
H       0.103297   -1.424555    2.888041
H       1.874311   -3.426973    1.187899
H       2.048073   -3.428947   -0.568390
H       3.111337   -2.411828    0.422099
