19

C      -0.090967    1.470658   -0.071448
C       0.017404   -0.042706    0.061751
C       1.075144   -0.705892   -0.884544
C       1.878865   -1.150268    0.343403
C       0.847972   -0.509934    1.271693
C       0.991289   -2.019038    1.217108
O       0.001411   -2.824076    0.676520
C       1.668013   -2.625194    2.381341
O       1.359892   -3.721324    2.796575
H       0.894179    1.947189   -0.009607
H      -0.537120    1.743815   -1.033628
H      -0.717531    1.894183    0.721177
H      -0.973896   -0.501476    0.015582
H       0.723920   -1.509804   -1.534735
H       1.608490    0.038107   -1.480904
H       2.960038   -1.185630    0.421117
H       0.986872    0.047453    2.192652
H       0.007169   -3.625422    1.224659
H       2.470580   -2.022339    2.852280
