18

C      -0.102275   -1.205718    0.239987
C      -0.062112   -0.015750    0.076728
C       0.019820    1.429259   -0.129419
C       1.434673    1.951144   -0.055846
C       2.120174    2.394583    1.205578
C       1.960975    3.361304    0.058414
N       2.876662    3.207642   -1.143132
C       3.840450    2.111186   -0.918661
C       2.435486    1.768833   -1.218685
H      -0.147350   -2.256231    0.387247
H      -0.415618    1.680475   -1.106562
H      -0.595685    1.944286    0.618820
H       1.432434    2.606204    2.019978
H       3.068097    1.994283    1.546247
H       1.444742    4.308197    0.156959
H       4.544978    2.026041   -1.741516
H       4.284773    1.945389    0.055502
H       2.128904    1.337541   -2.167114
