21

C      -0.009180    1.517318    0.020493
C       0.002137   -0.011964   -0.005642
C      -1.411124   -0.593963   -0.040228
C      -1.456241   -2.115684   -0.011362
O      -2.826667   -2.495826   -0.031229
O       0.722734   -0.496218   -1.135793
C       2.060228   -0.711740   -0.717535
C       1.883117   -1.167592    0.731620
O       0.712688   -0.480441    1.151575
H       1.012466    1.904931   -0.009237
H      -0.560013    1.909863   -0.838464
H      -0.483111    1.873952    0.938716
H      -1.968966   -0.204511    0.817585
H      -1.914959   -0.236599   -0.944453
H      -0.916059   -2.516608   -0.880262
H      -0.954562   -2.478580    0.897662
H      -2.868378   -3.456164   -0.018455
H       2.510127   -1.464757   -1.368770
H       2.654618    0.211728   -0.778702
H       1.734641   -2.255110    0.792109
H       2.718459   -0.889018    1.381549
