22

C       0.026120    1.372947   -0.445487
C       0.016270    0.019621    0.266135
O       0.552580    0.106297    1.584869
C      -1.367752   -0.632654    0.281184
C      -2.441441    0.133667    1.031425
N      -1.732237   -1.278632   -0.996163
C      -1.522439   -2.113816    0.210244
C      -0.418969   -3.141232    0.098841
O      -0.770618   -4.144699   -0.841478
H       1.046994    1.761465   -0.493118
H      -0.359354    1.271936   -1.464027
H      -0.591800    2.111180    0.079763
H       0.693616   -0.645701   -0.274259
H       0.182562    0.888780    2.006012
H      -2.644700    1.106132    0.569908
H      -3.379998   -0.428298    1.052726
H      -2.140097    0.307111    2.069974
H      -2.725813   -1.163825   -1.180665
H      -2.422799   -2.508698    0.679844
H       0.536337   -2.670700   -0.166425
H      -0.280990   -3.648964    1.058854
H      -0.970180   -3.674892   -1.660137
