17

O       0.012098    0.289199   -1.061650
C       0.025797    1.143762   -0.197807
C      -1.217912    1.513307    0.521340
C      -1.403824    2.479393    1.431754
C      -0.423345    3.449058    2.032780
C       1.009569    3.382050    1.519563
C       1.186982    3.418710   -0.013767
C       1.317349    1.885217    0.136371
O       1.510880    2.022067    1.563511
H      -2.066133    0.906586    0.216329
H      -2.414246    2.592609    1.822727
H      -0.807217    4.471514    1.900014
H      -0.416896    3.284049    3.120214
H       1.646157    4.059203    2.098813
H       0.364738    3.804839   -0.618043
H       2.124154    3.885583   -0.318491
H       2.152466    1.383256   -0.356731
