21

C      -0.721927    1.332347   -0.123657
C      -0.097081   -0.052603   -0.038848
C       1.122731   -0.362174   -0.973939
O       1.669982    0.729785   -1.670356
C       1.962454   -0.781153    0.278712
O       3.024485    0.120064    0.559335
C       2.529434    1.209655    1.353854
C       1.317164    0.666574    2.123543
C       0.768412   -0.441450    1.212184
H       0.024820    2.127316   -0.055669
H      -1.237151    1.459744   -1.080884
H      -1.457343    1.480548    0.674663
H      -0.879424   -0.803239   -0.191031
H       0.928058   -1.184661   -1.673757
H       2.551033    0.861472   -1.291310
H       2.371606   -1.793684    0.275640
H       3.346623    1.540373    2.000686
H       2.242457    2.045872    0.702914
H       1.637286    0.231852    3.075235
H       0.587041    1.449696    2.342811
H       0.358221   -1.270585    1.790740
