14

N      -0.629361    0.633172    1.234179
C      -0.227644   -0.278101    0.311714
C      -0.957322   -0.935191   -0.666343
N      -0.078361   -1.758426   -1.302249
N       1.076447   -1.701996   -0.838832
O       1.020855   -0.686724    0.283818
C      -2.378831   -0.793524   -1.021211
C      -3.466937   -0.909000   -0.033505
O      -3.027598    0.379400   -0.488887
H       0.089650    1.203376    1.651197
H      -1.496793    1.097056    0.998963
H      -2.615749   -1.011799   -2.061288
H      -4.464512   -1.195324   -0.361232
H      -3.223321   -1.143797    1.000682
