14

N      -0.376106    1.331731    0.262632
C       0.148296   -0.000894   -0.039208
C       0.876555   -0.537513    1.156707
N       2.140130   -0.863726    1.084877
O       2.500522   -1.310853    2.360593
C       1.441747   -1.236245    3.162331
C       0.363167   -0.751747    2.482238
C      -0.947430   -0.538622    2.970419
N      -2.020448   -0.388554    3.377440
H       0.374656    2.014763    0.252383
H      -1.045263    1.612684   -0.445455
H      -0.704380   -0.657214   -0.248138
H       0.826685   -0.060179   -0.902602
H       1.580437   -1.554818    4.183764
