15

O       0.164653    1.280765    0.524810
C       0.007888    0.052937   -0.153209
C      -1.409360   -0.502664   -0.045248
C      -1.588225   -1.970927    0.202518
N      -1.875255   -1.011969    1.264661
C      -2.393300    0.225745   -0.800266
C      -3.173817    0.867536   -1.464902
C      -4.064059    1.582407   -2.212408
N      -4.817292    2.193901   -2.851795
H      -0.373788    1.944185    0.079040
H       0.292329    0.127303   -1.212949
H       0.695895   -0.649423    0.329363
H      -2.456914   -2.476081   -0.207302
H      -0.682955   -2.571661    0.247732
H      -1.105561   -0.948937    1.928327
