16

O      -0.065863    0.115490   -0.584719
C       0.028614    1.246181   -0.158198
N       1.196143    1.853026    0.184774
C       2.454661    1.202020    0.079273
C       3.511374    1.658807   -0.921780
O       3.279366    2.902565   -1.539472
C       3.731870    3.873010   -0.616633
O       3.497902    3.340040    0.681996
C       3.685409    1.944736    0.544001
H      -0.841765    1.909764    0.012637
H       1.192905    2.796381    0.540673
H       2.407345    0.133787    0.262072
H       4.100097    0.950623   -1.493790
H       4.807346    4.071933   -0.754966
H       3.148342    4.789167   -0.737276
H       4.431202    1.508101    1.199061
