16

O       0.122495    0.237379   -0.520078
C       0.651602    1.296856   -0.404736
O       0.534215    2.015603    0.762818
C       1.025576    3.295452    0.816011
N       1.274339    3.978884   -0.205316
C       1.793696    5.329885   -0.116050
C       2.023148    5.928937    1.290358
C       2.541988    7.286397    1.203213
C       2.969388    8.403700    1.089785
H       1.277397    1.804276   -1.149407
H       1.126714    3.585723    1.863236
H       2.738241    5.355894   -0.671369
H       1.108071    5.979533   -0.671748
H       1.081293    5.930759    1.854245
H       2.726111    5.302056    1.854326
H       3.347193    9.392650    1.007107
