17

N      -0.047182    1.303289    0.065982
C      -0.030281    0.040994    0.040532
O      -1.170714   -0.649578   -0.137861
C      -1.112196   -2.065277    0.002153
C      -1.551296   -2.674692    1.375688
C      -2.636494   -3.462762    0.632588
C      -3.560288   -2.506167   -0.057097
C      -2.233413   -2.810106   -0.699838
H       0.899813    1.658502    0.180817
H       0.858591   -0.599529    0.139017
H      -0.121049   -2.422751   -0.298738
H      -0.769578   -3.290713    1.825388
H      -1.910253   -1.952267    2.114633
H      -2.896467   -4.497059    0.815515
H      -4.412087   -2.953033   -0.558960
H      -3.750855   -1.522969    0.363622
H      -2.163612   -3.243039   -1.689850
