19

C      -0.165606    1.551927    0.082068
C      -0.016330    0.026500   -0.018494
N      -1.265840   -0.723627   -0.012759
C      -2.063120   -0.683463   -1.225105
C      -1.938877   -0.836544    1.193683
C      -1.503945   -0.602074    2.470388
O      -2.476340   -0.907252    3.360185
N      -3.592021   -1.340324    2.681135
C      -3.277609   -1.294312    1.409482
H       0.818823    2.030211    0.102051
H      -0.715331    1.952771   -0.775284
H      -0.701859    1.838012    0.991405
H       0.517261   -0.233231   -0.939557
H       0.601391   -0.345871    0.807251
H      -2.709712   -1.564509   -1.283556
H      -2.699177    0.212320   -1.311655
H      -1.393505   -0.711425   -2.088692
H      -0.582104   -0.239081    2.891547
H      -4.015560   -1.589189    0.678463
