24

C       0.118218    1.619463    0.023152
C       0.002848    0.092149    0.010937
C       0.620625   -0.535090   -1.245093
C       0.624338   -2.076217   -1.279312
C      -0.798262   -2.655041   -1.310569
C       1.469082   -2.559313   -2.473181
C       1.720778   -4.081837   -2.486527
C       2.598005   -4.489274   -3.581833
N       3.292679   -4.793671   -4.453856
H       1.165678    1.938304   -0.017141
H      -0.393856    2.061897   -0.838533
H      -0.325289    2.045766    0.928209
H       0.497919   -0.319438    0.900836
H      -1.053627   -0.188293    0.092387
H       0.096423   -0.158237   -2.135424
H       1.656810   -0.182020   -1.334992
H       1.116885   -2.427693   -0.359521
H      -0.799125   -3.749111   -1.290580
H      -1.384735   -2.322825   -0.450184
H      -1.326636   -2.337165   -2.217588
H       0.983147   -2.270456   -3.413162
H       2.439700   -2.051750   -2.458139
H       2.178771   -4.397326   -1.541190
H       0.781123   -4.635795   -2.580448
