16

C      -0.106038    1.500170    0.020058
C       0.001919   -0.010682   -0.007999
O      -1.340467   -0.542090    0.011368
C      -1.429914   -1.866280   -0.010225
N      -0.457200   -2.721226   -0.046164
N      -1.120324   -3.947059   -0.054153
C      -2.489817   -3.853829   -0.022965
O      -3.337227   -4.718240   -0.020236
N      -2.665103   -2.456234    0.005850
H       0.895377    1.939807    0.006525
H      -0.656606    1.868669   -0.849833
H      -0.619321    1.838375    0.924373
H       0.508020   -0.372355   -0.909230
H       0.545431   -0.402467    0.858187
H      -0.593859   -4.801207   -0.079197
H      -3.557812   -1.995767    0.031687
