16

O      -0.098395    1.401257   -0.087088
C      -0.167912    0.027161   -0.418270
C      -1.156089   -0.609388    0.567493
C      -1.334616   -2.035809    0.340871
C      -1.461077   -3.215695    0.138456
C      -1.649233   -4.644174   -0.122294
O      -2.915904   -4.961071   -0.670575
C      -0.552134   -5.152814   -0.985756
N       0.285214   -5.554812   -1.672300
H       0.530757    1.824921   -0.678005
H      -0.525205   -0.130040   -1.446810
H       0.809661   -0.468282   -0.326563
H      -0.796993   -0.430765    1.587954
H      -2.118534   -0.090759    0.482055
H      -1.601880   -5.201651    0.821419
H      -3.049328   -4.401927   -1.445317
