16

N      -0.050560   -1.119626   -0.132518
C      -0.027002    0.029808   -0.041255
C      -0.031227    1.502956    0.025855
O      -0.740369    1.889777    1.168880
C      -0.987895    3.297923    1.146993
C       0.278635    4.077808    0.859613
C       1.543141    3.824342    1.647878
C       1.428313    3.322149    0.235002
O       1.305037    1.928748    0.053338
H      -0.538633    1.898453   -0.873819
H      -1.745037    3.521112    0.379051
H      -1.410031    3.539406    2.125788
H       0.109183    5.088657    0.502325
H       2.200447    4.662038    1.850914
H       1.507798    3.062338    2.418639
H       2.018021    3.782404   -0.551516
