21

C      -0.186520    1.531088   -0.065318
C      -0.114396    0.009297   -0.010061
C       1.021032   -0.609203   -0.870814
N       1.863467   -0.655254    0.332600
C       2.825265   -1.715459    0.516376
C       0.688354   -0.588057    1.195542
C       0.872311    0.184757    2.498780
N      -0.291084    0.406625    3.185032
O       1.957209    0.532463    2.917087
H       0.803636    1.968960    0.092182
H      -0.556698    1.862241   -1.041366
H      -0.858524    1.933152    0.700032
H      -1.100662   -0.435301   -0.162612
H       0.749017   -1.606692   -1.257887
H       1.422737   -0.006135   -1.693720
H       3.608544   -1.640662   -0.245326
H       3.293171   -1.606496    1.498327
H       2.375568   -2.725560    0.446990
H       0.283077   -1.586951    1.453175
H      -1.191697    0.214925    2.781637
H      -0.249044    0.960915    4.024702
