20

C       0.148280    1.518057    0.236868
C       0.282931   -0.004933    0.149694
C       0.597174   -0.506515   -1.275125
C       1.952366   -0.050229   -1.775160
C       2.853768   -1.029387   -1.796965
C       2.276093   -2.350256   -1.353236
C       0.744277   -2.065710   -1.404497
C      -0.033210   -2.845644   -0.448292
N      -0.648300   -3.468494    0.307237
H       1.084793    2.024559   -0.017075
H      -0.626377    1.887138   -0.444942
H      -0.128458    1.825487    1.249529
H       1.068973   -0.347061    0.834194
H      -0.647918   -0.472711    0.488586
H      -0.210998   -0.164583   -1.933818
H       2.150653    0.983739   -2.032028
H       3.897249   -0.917606   -2.068579
H       2.548494   -3.189419   -2.000779
H       2.606875   -2.614877   -0.341053
H       0.392931   -2.341032   -2.404836
