21

C      -0.159758    1.611994   -0.254563
O      -0.338378    0.212795   -0.212621
C       0.609233   -0.547874   -0.933624
C       0.533822   -0.312383   -2.440887
C       2.076098   -0.531603   -0.369445
C       2.020683   -2.059036   -0.381602
C       2.999113   -3.008763   -0.913957
O       2.740959   -2.902689    0.494471
C       0.501602   -2.049371   -0.541172
H       0.853236    1.906749    0.057541
H      -0.351677    2.034503   -1.250755
H      -0.878651    2.042479    0.446844
H       0.832252    0.705194   -2.710963
H       1.202155   -1.000697   -2.967383
H      -0.486723   -0.482137   -2.798459
H       2.853693   -0.040728   -0.959715
H       2.093709   -0.149957    0.655341
H       2.661097   -3.933649   -1.380538
H       3.979230   -2.657037   -1.235108
H      -0.001929   -2.147707    0.423715
H       0.049873   -2.731276   -1.265418
