18

O      -0.089696    1.423510   -0.069433
C       0.006082    0.000164   -0.008353
C       0.611504   -0.587286   -1.296443
C      -0.182509   -0.172243   -2.526861
O       0.446011   -0.756948   -3.667879
C       0.119432   -0.239785   -4.867010
N       0.553586   -0.772982   -5.925428
C       0.749467   -0.442015    1.173218
C       1.399414   -0.777385    2.127024
H       0.789675    1.780225    0.099796
H      -1.033915   -0.340631    0.079152
H       1.648910   -0.249894   -1.399456
H       0.634917   -1.679183   -1.221932
H      -1.220364   -0.527566   -2.454281
H      -0.203600    0.919997   -2.612610
H      -0.520307    0.651912   -4.800304
H       0.230960   -0.247087   -6.734964
H       1.956590   -1.079656    2.979507
