16

C      -0.575611    1.442540    0.121773
C      -0.037167    0.027260   -0.041899
C       0.733771   -0.440477   -1.317879
C       1.779108    0.536016   -1.877255
O       2.784598    0.088153   -0.933620
C       1.916363   -0.956220   -0.433927
C       1.169786   -0.423759    0.813630
O       1.434489   -0.342988    1.976283
H       0.197601    2.194025   -0.061839
H      -1.409227    1.634721   -0.560972
H      -0.934018    1.585631    1.145404
H      -0.841644   -0.696605    0.152534
H       0.186871   -1.061853   -2.023654
H       2.087330    0.315517   -2.906538
H       1.573673    1.608198   -1.788834
H       2.375050   -1.948039   -0.441687
