19

C       0.112843    1.510267   -0.127536
C      -0.106325   -0.002779   -0.069599
C       0.622566   -0.642233    1.129883
C      -1.576770   -0.359913   -0.025295
N      -2.487166    0.473980    0.248431
O      -1.722342   -1.698995   -0.306575
C      -3.032997   -2.230709   -0.262798
C      -2.959364   -3.660103   -0.567057
N      -2.939666   -4.789796   -0.802453
H       1.183039    1.727902   -0.196409
H      -0.388206    1.953220   -0.991678
H      -0.284843    1.995356    0.767326
H       0.291468   -0.463758   -0.982667
H       0.474843   -1.724485    1.155135
H       1.696249   -0.443838    1.064845
H       0.257106   -0.219838    2.071858
H      -3.428607    0.087212    0.259010
H      -3.484074   -2.098462    0.730303
H      -3.686092   -1.741434   -0.998594
