17

C       0.026904    1.510206   -0.084260
C       0.023231    0.013572    0.033783
O       0.861130   -0.692483   -0.930018
C       0.743880   -1.823154   -0.031281
C      -0.751258   -2.187298   -0.003821
C      -1.293540   -1.619395    1.287091
O      -0.234340   -1.228501    2.134346
C       0.698042   -0.830859    1.178117
C      -1.312088   -0.765246    0.042925
H       1.047609    1.899900   -0.045316
H      -0.425270    1.826537   -1.030075
H      -0.548463    1.953035    0.734467
H       1.487476   -2.601391   -0.188415
H      -1.192604   -3.013392   -0.542275
H      -2.170529   -1.983679    1.805039
H       1.627855   -0.477679    1.614221
H      -2.209546   -0.431400   -0.458717
