23

C       0.579714   -0.072537    1.464872
C       0.112069   -0.123336    0.005404
C      -1.275061   -0.721912   -0.136687
O      -2.274809   -0.037880    0.586931
C      -2.610949    1.240611    0.084432
C      -1.823539   -1.378470   -1.383237
C      -0.765650   -2.200243   -2.128905
C      -0.506840   -3.025937   -0.823808
C      -1.572319   -2.194571   -0.100104
H       1.566677    0.392741    1.547334
H      -0.122178    0.498312    2.078772
H       0.643633   -1.079671    1.890000
H       0.119199    0.886799   -0.423912
H       0.823692   -0.699672   -0.592202
H      -1.797345    1.968198    0.210964
H      -2.880513    1.205075   -0.980326
H      -3.474925    1.586284    0.657644
H      -2.770438   -1.050738   -1.796075
H      -1.198709   -2.816270   -2.920147
H       0.080417   -1.648666   -2.551414
H      -0.803797   -4.070597   -0.938033
H       0.505254   -3.003241   -0.406833
H      -2.296714   -2.568120    0.613216
