14

N       0.009647    1.337956    0.124185
C      -0.033881    0.000921    0.089215
C      -1.251698   -0.669576    0.013256
N      -1.527741   -1.974083   -0.032629
C      -0.658028   -2.952901   -0.014202
C       0.763980   -2.906614    0.056923
N       1.623035   -1.929885    0.123153
C       1.359201   -0.583197    0.143018
O       2.274616    0.228503    0.207542
H       0.938628    1.738472    0.179248
H      -0.817323    1.909125    0.097507
H      -2.135903   -0.030668   -0.014097
H      -1.082885   -3.955105   -0.059900
H       1.225624   -3.898557    0.055362
