15

O      -0.115931    1.415275   -0.443235
C       0.032262    0.102308    0.077230
C      -1.338155   -0.528956    0.071753
C      -1.855338   -1.265277   -1.114125
C      -1.551356   -2.041117    0.164394
C      -0.417193   -2.991652    0.170201
O      -0.377581   -3.998258    0.834726
H       0.727391    1.869495   -0.355182
H       0.734888   -0.487647   -0.530652
H       0.426434    0.123042    1.105375
H      -2.064950    0.048115    0.636246
H      -2.896393   -1.164062   -1.396822
H      -1.174555   -1.414451   -1.946990
H      -2.389241   -2.371458    0.768662
H       0.422423   -2.727460   -0.513784
