19

C      -0.169953    1.358501    0.046352
O      -0.118407   -0.070059    0.151255
C       0.728506   -0.549313    1.071040
O       1.396577    0.142131    1.801077
C       0.715159   -2.080755    1.094806
C      -0.661313   -2.588390    1.556931
O       0.992056   -2.518564   -0.229306
C       1.835719   -2.566033    2.026382
O       1.911373   -3.978637    1.834894
H       0.811162    1.759259   -0.220300
H      -0.895418    1.571125   -0.738525
H      -0.485964    1.803709    0.993238
H      -1.418831   -2.306419    0.824054
H      -0.632439   -3.677390    1.645887
H      -0.934415   -2.170078    2.531764
H       1.325290   -3.420386   -0.123565
H       2.773608   -2.074099    1.745403
H       1.610869   -2.311579    3.069387
H       2.747693   -4.290612    2.189713
