20

C       0.345029    1.088676   -0.263664
N      -0.215428   -0.112766    0.318444
C       0.552498   -0.835423    1.001109
O       0.089149   -1.968198    1.583475
C       1.037811   -2.704171    2.313367
C       0.696035   -4.143009    2.576878
C       1.837986   -3.784607    1.640592
C       1.704470   -4.037017    0.157940
O       3.141629   -3.890539    2.151297
H       1.413281    1.241390   -0.038144
H       0.224480    1.060254   -1.352674
H      -0.210131    1.963390    0.093932
H       1.617581   -0.632973    1.190559
H       1.536576   -2.147596    3.103117
H       0.940043   -4.540113    3.555449
H      -0.221254   -4.514156    2.133246
H       0.689880   -3.827989   -0.188358
H       2.400742   -3.402245   -0.399479
H       1.936546   -5.082312   -0.078044
H       3.387375   -4.822704    2.145704
