20

C      -0.100550    1.496165   -0.026005
C       1.165189    0.716133    0.022218
N      -0.141641    0.030070   -0.023498
C      -0.256876   -0.555879   -1.377274
C       0.820498    0.097359   -2.270989
C       1.918090    0.511758   -1.275676
C       2.988179    1.540616   -1.711347
C       3.986907    0.383030   -1.530922
O       2.940155   -0.516217   -1.114988
H      -0.474396    1.959425    0.882439
H      -0.349641    2.035487   -0.937105
H       1.737721    0.637816    0.941711
H      -0.070258   -1.629481   -1.276596
H      -1.274102   -0.425131   -1.758540
H       1.221574   -0.586597   -3.021321
H       0.437128    0.978233   -2.796229
H       2.877975    1.916129   -2.730405
H       3.118243    2.383799   -1.030585
H       4.485742    0.037376   -2.444767
H       4.742807    0.520627   -0.748363
