15

C      -0.019978    1.494035   -0.057043
C      -0.011590    0.001984    0.029062
N      -0.061426   -0.721681   -1.068720
O      -0.037713   -2.049527   -0.653308
C       0.024979   -2.086443    0.692734
C       0.044904   -0.823416    1.189355
C       0.061275   -3.403391    1.383136
N       0.023314   -4.478070    0.551778
O       0.117997   -3.471183    2.596359
H       0.878829    1.915649    0.403907
H      -0.060288    1.809900   -1.100940
H      -0.885075    1.909402    0.469567
H       0.092768   -0.535239    2.225582
H      -0.021215   -4.371161   -0.447131
H       0.046747   -5.398356    0.957506
