21

C       0.114787    1.482121   -0.146623
C      -0.061832   -0.031094    0.058782
C      -1.552201   -0.399301    0.139129
O       0.505773   -0.707011   -1.079594
C       1.558723   -1.579985   -0.683204
C       1.649693   -1.434234    0.805896
C       0.741941   -0.564629    1.234146
C       0.497464   -0.133489    2.643535
O       1.398609   -0.806823    3.504520
H       1.176211    1.738266   -0.202963
H      -0.363768    1.785144   -1.082502
H      -0.339920    2.053948    0.669215
H      -2.050918   -0.121047   -0.793906
H      -1.671966   -1.475992    0.286767
H      -2.051500    0.123900    0.961491
H       1.327748   -2.611963   -0.993240
H       2.493621   -1.296508   -1.193172
H       2.357257   -1.967245    1.425859
H       0.616667    0.961450    2.718581
H      -0.550582   -0.347423    2.916636
H       1.228089   -0.512286    4.403530
