18

C      -0.041036    1.435583    0.312598
C      -0.053770   -0.016746    0.238592
C      -0.083893   -1.219371    0.176941
C      -0.080362   -2.651739    0.085528
O      -0.753938   -3.402027    1.125721
C      -1.295702   -3.456323   -0.188748
C      -2.659585   -2.868385   -0.382140
C      -3.732596   -3.235380    0.580110
N      -3.182575   -1.870750    0.551090
H       0.543653    1.865226   -0.508083
H      -1.056336    1.841124    0.248988
H       0.401903    1.781816    1.252801
H       0.873999   -3.094382   -0.199673
H      -1.137216   -4.407902   -0.702271
H      -2.921782   -2.698717   -1.424899
H      -4.759963   -3.328797    0.240403
H      -3.457337   -3.883852    1.407650
H      -2.515809   -1.764326    1.313702
