23

C      -0.015681    1.547830   -0.427848
C       0.002829    0.134601    0.168227
C      -1.360813   -0.530795    0.155413
O      -2.336659    0.155971    0.906307
C      -1.851324   -1.270016   -1.070370
C      -1.531273   -2.020970    0.214843
C      -0.384521   -3.004556    0.298112
C      -0.797490   -4.404380   -0.145757
O       0.340304   -5.247348   -0.040098
H       0.983557    1.992550   -0.414721
H      -0.364531    1.536817   -1.466471
H      -0.672499    2.211426    0.144906
H       0.716770   -0.482899   -0.385705
H       0.359509    0.179765    1.204747
H      -2.574879    0.952616    0.420125
H      -2.893740   -1.153130   -1.345621
H      -1.167730   -1.385769   -1.906584
H      -2.409400   -2.308028    0.788524
H       0.455371   -2.686295   -0.328568
H      -0.004144   -3.065599    1.325272
H      -1.622874   -4.765880    0.489328
H      -1.175530   -4.367357   -1.180014
H       0.085212   -6.132589   -0.315113
