16

O      -0.417996    1.108306    0.214134
C       0.074983   -0.162196   -0.035233
C       0.941642   -0.179858   -1.291138
O       1.193039    0.841971   -1.878651
C       0.942980   -0.700284    1.129033
O       1.529459    0.016885    1.896889
N       1.071122   -2.092275    1.096189
C       0.027517   -3.004324    1.560188
C       1.313901   -2.846373    2.308382
H       0.070600    1.704784   -0.374942
H      -0.746066   -0.878296   -0.199265
H       1.330391   -1.165160   -1.608192
H      -0.864897   -2.565024    1.998982
H      -0.143651   -3.880836    0.942190
H       2.074276   -3.617703    2.236673
H       1.300616   -2.284431    3.237570
