18

C       0.247844    1.531755    0.009526
O       1.223565    0.500173   -0.147485
C      -0.150330    0.119576   -0.009804
C      -0.514487   -0.629605    1.255205
C      -1.995989   -0.558645    1.598412
C      -2.548075   -1.764814    1.742033
C      -1.546509   -2.837487    1.469028
N      -1.042477   -2.786937    0.064282
C      -0.272980   -2.139642    1.149240
H       0.285186    2.067855    0.957911
H       0.079085    2.156414   -0.866628
H      -0.597394   -0.285866   -0.916174
H       0.092668   -0.208647    2.068483
H      -2.519833    0.387511    1.677376
H      -3.584055   -1.963235    1.988785
H      -1.585596   -3.796633    1.973589
H      -0.592748   -3.674716   -0.154244
H       0.696397   -2.545093    1.415034
