21

C      -0.001118    1.595871    0.033435
C      -0.007409    0.058476    0.001474
C       0.631549   -0.468967   -1.265804
C       1.772056   -1.156958   -1.240141
C       2.448104   -1.435715    0.085266
C       1.831197   -2.678629    0.764327
C       0.526309   -2.080951    1.357685
C       0.731482   -0.545873    1.215249
O       2.140781   -0.391556    1.010346
H       1.027057    1.963457    0.094417
H      -0.460103    2.013600   -0.868601
H      -0.555845    1.973625    0.899304
H      -1.052844   -0.281387    0.035585
H       0.134277   -0.244839   -2.206854
H       2.222302   -1.556231   -2.144642
H       3.535500   -1.481241   -0.013215
H       1.646540   -3.499505    0.067560
H       2.496466   -3.039286    1.553822
H      -0.361775   -2.416891    0.816986
H       0.401075   -2.364963    2.404856
H       0.477315    0.000127    2.127987
