18

O      -0.034621    1.444284    0.016694
C       0.048687    0.028097    0.077540
C      -1.382555   -0.516830    0.014792
C      -2.091738   -0.235672   -1.290778
C      -2.515273   -1.344323   -1.896674
C      -2.181250   -2.593937   -1.119848
C      -1.438881   -2.037103    0.078762
N      -0.897625   -2.679187    1.033443
O      -1.067086   -4.066986    0.871935
H       0.858761    1.799127    0.033176
H       0.631281   -0.378113   -0.763942
H       0.518202   -0.314395    1.010282
H      -1.925530   -0.070445    0.859621
H      -2.213442    0.775880   -1.656627
H      -3.047002   -1.376034   -2.840898
H      -3.066894   -3.163456   -0.806258
H      -1.558411   -3.306978   -1.676112
H      -0.623271   -4.417933    1.651264
