19

C       0.149950    1.310599   -0.029813
O      -0.415252    0.098426    0.476591
C       0.389195   -0.633579    1.261197
C       0.692350   -1.957661    1.231782
C       0.245705   -2.959417    0.214816
C       1.524003   -2.165101    2.392555
C       1.667368   -0.968763    3.016938
C       2.403803   -0.517711    4.225363
O       0.962385   -0.009009    2.330509
H       1.052294    1.102720   -0.617626
H      -0.611679    1.757811   -0.670382
H       0.397436    1.999800    0.783212
H       1.097019   -3.461015   -0.260085
H      -0.379258   -3.741802    0.661628
H      -0.340345   -2.472515   -0.568847
H       1.964228   -3.099259    2.708757
H       3.152709    0.246239    3.984168
H       1.730307   -0.087367    4.976002
H       2.919610   -1.367451    4.678604
