17

C       0.086498    1.551098    0.007947
C      -0.031312    0.029443    0.003116
C      -1.446107   -0.508100    0.013102
N      -2.434924    0.346842    0.023410
C      -3.748740   -0.092233    0.032756
O      -4.724074    0.625756    0.042585
N      -3.926847   -1.499987    0.030323
C      -2.905816   -2.386445    0.019704
C      -1.627641   -1.929844    0.010700
H       1.139460    1.847662    0.000039
H      -0.406172    1.985994   -0.864649
H      -0.391031    1.979262    0.892227
H       0.477399   -0.395057   -0.874036
H       0.492425   -0.401848    0.868006
H      -4.889038   -1.806233    0.037233
H      -3.172599   -3.437528    0.018988
H      -0.786738   -2.609181    0.002118
