12

O       0.002367   -0.097124    0.094085
C      -0.013777    1.090735    0.036065
C      -1.025072    2.235462    0.022005
C      -0.022446    3.115318    0.857065
O      -0.055441    4.247799   -0.057503
C      -0.058053    3.071574   -0.907915
C      -0.089053    3.204931   -2.338713
N      -0.113764    3.292422   -3.490601
C       0.966967    2.260542   -0.018811
H      -2.110047    2.283256    0.027982
H      -0.002721    3.291911    1.928245
H       2.049730    2.335624   -0.057245
