21

C      -0.254125    1.473507    0.055677
C      -0.040276   -0.036609    0.066698
C       0.885501   -0.564495   -1.069988
C       2.070254   -0.591561   -0.075947
C       1.040226   -0.521594    1.088211
O       1.444940    0.316850    2.144716
C       2.993082   -1.789926   -0.042012
C       4.185318   -1.667832    0.889245
O       2.768215   -2.793409   -0.681854
H       0.691474    2.016479   -0.038080
H      -0.893385    1.761249   -0.785415
H      -0.734577    1.815355    0.978076
H      -1.004381   -0.547158    0.156014
H       0.637848   -1.575280   -1.399490
H       0.996830    0.079143   -1.945244
H       2.647308    0.338125   -0.075897
H       0.802237   -1.531128    1.452001
H       0.829778    0.210093    2.877330
H       3.879762   -1.234601    1.847714
H       4.655578   -2.641189    1.035238
H       4.916750   -0.977309    0.451647
