19

C      -0.048762    1.534504    0.145302
C      -0.008175    0.010461    0.012565
C       0.714069   -0.461026   -1.256002
O       2.050658    0.024466   -1.332160
C       0.691250   -1.989424   -1.387701
C       1.505406   -2.643286   -2.519969
O       2.343808   -3.331905   -1.529516
C       1.690734   -2.732372   -0.490853
O       1.947134   -2.798662    0.671024
H       0.959966    1.955207    0.127182
H      -0.609730    1.987665   -0.679599
H      -0.529035    1.833336    1.081284
H       0.489265   -0.440260    0.881533
H      -1.028228   -0.393731    0.003960
H       0.215917   -0.032922   -2.135727
H       2.490782   -0.188834   -0.499869
H      -0.326255   -2.376876   -1.289038
H       0.985858   -3.364240   -3.152711
H       2.111300   -1.953496   -3.108360
