21

C       0.008390    1.595717    0.016575
C       0.020098    0.063847    0.012292
C       0.690866   -0.507003   -1.227788
C       1.107240   -1.775492   -1.287054
C       0.887353   -2.706435   -0.149364
C       1.913517   -2.867873    0.955013
C       0.663963   -2.064714    1.200089
C       0.728797   -0.527570    1.255894
O       2.049911   -0.011449    1.370729
H       1.026184    1.994098    0.044683
H      -0.490951    1.985491   -0.876501
H      -0.521509    1.980394    0.893952
H      -1.021843   -0.288438    0.037873
H       0.839766    0.160031   -2.074003
H       1.593325   -2.159040   -2.181595
H       0.310943   -3.597378   -0.388093
H       1.998379   -3.840870    1.426731
H       2.847225   -2.322289    0.882682
H      -0.089940   -2.507445    1.843166
H       0.222245   -0.187840    2.165361
H       2.468214   -0.112378    0.506586
