18

C       0.092232    1.488403    0.007580
C       0.009432   -0.026829   -0.019407
O       1.012043   -0.726928   -0.067203
C      -1.312820   -0.635559    0.012796
C      -2.609337   -0.140221    0.066373
C      -3.484193   -1.246692    0.072446
C      -2.711019   -2.401245    0.023595
C      -3.116789   -3.837976    0.009528
N      -1.409567   -2.010082   -0.012132
H       1.140263    1.788651   -0.014632
H      -0.430527    1.918850   -0.853067
H      -0.384436    1.885928    0.909731
H      -2.885304    0.902847    0.096750
H      -4.562975   -1.223007    0.108591
H      -2.760577   -4.353724   -0.890079
H      -2.722494   -4.382000    0.876089
H      -4.205485   -3.919263    0.031848
H      -0.586025   -2.590529   -0.051567
