19

C       0.010463    1.422349    0.031934
C       0.007987   -0.073444   -0.056948
C      -0.945168   -0.986550    0.720966
C       0.554824   -1.098098    0.917837
C       0.537446   -2.105052   -0.259758
O       1.437877   -3.139165   -0.368396
C      -1.050860   -2.191667   -0.242709
C      -1.102106   -1.610868   -1.677355
C       0.251940   -0.953253   -1.313246
H       0.977723    1.841840   -0.267439
H      -0.758360    1.862404   -0.614744
H      -0.190205    1.753189    1.057009
H      -1.686756   -0.603657    1.410667
H       1.173140   -0.996359    1.799677
H       1.261136   -3.621705   -1.184271
H      -1.612699   -3.070675    0.072871
H      -0.990747   -2.388597   -2.441571
H      -1.940467   -0.958966   -1.941659
H       0.974928   -0.609419   -2.053730
