17

O       0.063683    1.410101    0.067475
C       0.058279   -0.000520    0.021161
C      -1.353180   -0.563974   -0.076579
C      -1.430574   -2.084873   -0.118148
C      -2.898897   -2.514901   -0.018969
N      -3.630505   -1.823988    1.039806
C      -3.156808   -0.740161    1.480791
O      -2.049036   -0.059508    1.088027
H      -0.517870    1.661149    0.794211
H       0.626636   -0.293629   -0.867749
H       0.555674   -0.440280    0.900876
H      -1.848320   -0.131874   -0.956846
H      -0.969116   -2.457446   -1.038565
H      -0.864530   -2.497513    0.725640
H      -3.416116   -2.336346   -0.971147
H      -2.971848   -3.591455    0.168596
H      -3.642504   -0.208550    2.297379
