18

C       0.000937    1.574175    0.131697
C       0.051134    0.063831    0.181119
C       1.262234   -0.743430   -0.191349
O       2.469855   -0.060153    0.150254
C       2.119187   -0.111327    1.558913
C       0.770571   -0.756116    1.242377
C       0.113318   -1.835238    2.066893
C      -0.552427   -1.299177    3.259209
N      -1.064517   -0.857839    4.196236
H       0.999874    2.002177    0.242347
H      -0.394951    1.909289   -0.832295
H      -0.642439    1.978092    0.919608
H      -0.869528   -0.433016   -0.124021
H       1.314215   -1.504253   -0.962932
H       2.800210   -0.782464    2.095730
H       2.122935    0.875659    2.033167
H      -0.632339   -2.369752    1.467350
H       0.849671   -2.581503    2.390647
