20

C      -0.227737    1.396976   -0.249477
C       1.190003    1.096847    0.155604
C       0.174046   -0.022761    0.065072
C      -0.288718   -0.722348    1.292047
C       0.277057   -2.113019    1.673059
C      -1.101242   -2.354314    2.251961
C      -1.596190   -1.074596    2.840505
C      -0.536890   -0.008621    2.642089
N      -1.750727   -1.326711    1.367447
H      -0.860837    1.921876    0.456824
H      -0.428179    1.639724   -1.286820
H       1.969584    1.140305   -0.596431
H       1.508904    1.409475    1.144271
H       0.270966   -0.679996   -0.795047
H       0.442436   -2.725645    0.782276
H       1.158311   -2.157200    2.322471
H      -1.586909   -3.303195    2.450142
H      -2.461528   -1.036956    3.492673
H       0.296254    0.066295    3.349537
H      -0.996453    0.973738    2.506337
