18

C       0.007005    1.519119    0.018454
C       0.003511    0.023042    0.014112
C      -0.036057   -0.827939   -1.043073
O      -0.038364   -2.106278   -0.635941
N      -0.001673   -2.128579    0.753260
C       0.023600   -0.872240    1.134724
C       0.100480   -0.534369    2.591839
C       1.541966   -0.250439    3.053789
O       1.603077    0.143101    4.411748
H       0.929452    1.924596    0.448694
H      -0.084615    1.913911   -0.996720
H      -0.825591    1.920684    0.606752
H      -0.070609   -0.673611   -2.111023
H      -0.514104    0.345164    2.811724
H      -0.303062   -1.374088    3.167871
H       2.168002   -1.131986    2.851917
H       1.963269    0.583771    2.482910
H       1.346530   -0.612131    4.950689
