12

F       0.009797    0.023926    0.003499
C      -0.014912    1.359297    0.010566
C      -1.239349    2.013780    0.030528
C      -1.246224    3.406385    0.037649
C      -0.057016    4.131006    0.025131
C       1.142444    3.431797    0.005292
F       2.292281    4.111210   -0.006925
C       1.192261    2.044547   -0.002391
H      -2.154796    1.435618    0.040064
H      -2.192814    3.935032    0.053192
H      -0.044981    5.213702    0.030431
H       2.136999    1.516935   -0.017903
