19

C       0.035916    1.501076    0.193431
C       1.572548    1.363679    0.023561
O       2.215966    1.046537    1.247901
C       1.425187    0.182043    2.067373
C       0.612068   -0.798934    1.212300
O       1.465771   -1.780159    0.626399
C       2.112965   -1.183443   -0.505897
C       1.298155    0.066104   -0.821591
C      -0.009855   -0.037118    0.013667
H      -0.345666    1.953087    1.112098
H      -0.407725    2.011407   -0.665079
H       2.142789    2.177986   -0.426534
H       2.118083   -0.363072    2.713273
H       0.750083    0.771133    2.705685
H      -0.113602   -1.331382    1.833649
H       3.156217   -0.942802   -0.265095
H       2.098751   -1.909039   -1.326654
H       1.167222    0.277328   -1.883694
H      -0.898135   -0.522360   -0.393287
