21

C       0.349768    1.389732    0.043218
C      -0.046674   -0.091424    0.133037
C       0.418111   -0.671882    1.480324
C      -1.581959   -0.238876    0.012666
O      -2.303285    0.401311    1.053675
N       0.483996   -0.732934   -1.086311
C       1.851203   -1.225229   -1.147192
C       0.698039   -2.170272   -1.167159
H       1.438263    1.498627    0.077809
H      -0.001340    1.824985   -0.897387
H      -0.063611    1.960358    0.881121
H      -0.162742   -0.205466    2.279716
H       0.246640   -1.750674    1.547246
H       1.477310   -0.476028    1.671372
H      -1.889530    0.120486   -0.978865
H      -1.845355   -1.300384    0.074752
H      -2.279244    1.348631    0.890395
H       2.395378   -0.991886   -2.058843
H       2.458035   -1.216262   -0.244388
H       0.553392   -2.785320   -0.281979
H       0.379504   -2.637984   -2.095218
