19

C       0.029586    1.506043   -0.161243
C      -0.131806   -0.007503    0.019854
C       0.650162   -0.540022    1.218454
C       0.800817   -2.061830    1.392788
O       1.518317   -2.529043    0.251267
C       2.287510   -2.028662    1.377892
C       3.352708   -2.887547    1.969428
C       2.214805   -0.509012    1.199543
O       3.028566    0.367467    1.187059
H       1.082412    1.778368   -0.277196
H      -0.513573    1.852715   -1.045421
H      -0.359209    2.053036    0.704916
H      -1.193254   -0.256459    0.147798
H       0.208123   -0.534434   -0.877520
H       0.324524   -0.054697    2.149129
H       0.153499   -2.762472    1.907379
H       2.997652   -3.915046    2.083423
H       4.238008   -2.897406    1.325697
H       3.654185   -2.504121    2.948918
