19

C      -0.066019    1.593883   -0.017131
C       0.026216    0.072323    0.011464
O       0.698929   -0.504397   -1.120882
C       2.063226   -0.156491   -1.326048
C       2.864908    0.008397   -0.057479
C       2.243562   -0.219201    1.086584
C       2.239210    0.207179    2.531545
O       0.779729    0.209584    2.497004
C       0.777720   -0.497665    1.222693
H       0.916117    2.068024    0.058648
H      -0.541504    1.919767   -0.946486
H      -0.668014    1.940505    0.827230
H      -0.982523   -0.346800   -0.055620
H       2.467574   -0.947271   -1.969813
H       2.138895    0.784171   -1.898694
H       3.865710    0.423777   -0.134450
H       2.616501   -0.529974    3.253874
H       2.656304    1.192609    2.768339
H       0.501862   -1.549652    1.372693
