23

C      -0.446327    1.612438    0.121359
C      -0.108022    0.127350    0.020566
C       0.438867   -0.434665   -1.299896
C       1.831578   -0.002072   -1.601400
O       2.258195    1.319249   -1.379206
C       1.659344   -1.059669   -0.550115
C       2.274587   -2.427940   -0.664928
C       1.132718   -0.481734    0.779016
C       2.042821    0.397997    1.633256
H       0.399102    2.240010   -0.161417
H      -1.282321    1.855596   -0.544589
H      -0.753938    1.873836    1.140571
H      -0.994960   -0.449020    0.304249
H      -0.181389   -0.874273   -2.074814
H       2.198987   -0.413166   -2.544645
H       3.208225    1.298000   -1.222565
H       2.416444   -2.719224   -1.711084
H       3.256806   -2.467211   -0.176544
H       1.644422   -3.189590   -0.190426
H       0.782007   -1.314730    1.399105
H       2.376590    1.283331    1.090381
H       1.524695    0.730618    2.539679
H       2.929676   -0.161745    1.953623
