20

C       0.009542    1.535926    0.074477
C       0.010447    0.021990   -0.042719
C       0.770706   -0.518630   -1.253274
C       0.821325   -2.031933   -1.167892
C      -0.121924   -2.877827   -1.998857
C       1.346745   -2.832085   -2.333236
N       1.138754   -2.553475    0.132501
C       1.036599   -1.775257    1.126444
O       0.605083   -0.491335    1.169778
H       1.033564    1.920689    0.102315
H      -0.506115    1.980013   -0.782338
H      -0.501396    1.850090    0.988548
H      -1.022886   -0.351243   -0.074850
H       0.289259   -0.182556   -2.177286
H       1.788348   -0.106447   -1.243077
H      -0.508111   -3.778250   -1.536810
H      -0.818646   -2.362462   -2.652350
H       1.658264   -2.291735   -3.221057
H       1.946130   -3.700665   -2.088035
H       1.317826   -2.107968    2.123557
