18

O       0.064491   -0.059007   -0.045588
C       0.018320    1.161273    0.007347
C      -1.219125    1.926775   -0.007726
C      -1.204132    3.281528   -0.091139
N      -0.068278    4.032924   -0.043091
C       1.128382    3.408679    0.515057
C       1.281654    1.997586   -0.013533
C       2.587687    1.279037    0.197269
C       2.213039    1.720507   -1.185763
H      -2.152042    1.382803   -0.076530
H      -2.122504    3.845118   -0.230930
H      -0.182329    5.019682    0.123755
H       2.001218    4.017396    0.260289
H       1.051150    3.376889    1.615456
H       3.379370    1.811050    0.714803
H       2.501569    0.222772    0.424235
H       1.897966    0.959250   -1.890018
H       2.729971    2.569022   -1.622300
