18

O       0.834158    0.057766    0.479373
C      -0.154490    0.127322   -0.539517
C      -1.460525   -0.530850   -0.102391
C      -2.056940   -1.662429   -0.909848
C      -1.332073   -1.965317    0.375931
O      -0.087292   -2.571703    0.308130
N      -2.407356    0.322498    0.580082
C      -2.121842    1.039042    1.690118
O      -1.032069    1.095553    2.238313
H       0.422316    0.457974    1.268388
H      -0.347626    1.166315   -0.842498
H       0.255997   -0.403182   -1.401493
H      -3.137705   -1.767274   -0.922331
H      -1.559409   -1.924630   -1.836403
H      -1.948829   -2.245718    1.229669
H       0.554395   -1.909716    0.617726
H      -3.336075    0.408656    0.196174
H      -2.997008    1.596539    2.069622
