14

O      -0.204794    0.645589   -1.361826
C      -0.019765    1.316251   -0.382239
C      -1.104293    1.540777    0.665308
N      -0.881759    2.767313    1.415757
C       0.096551    3.649755    1.066162
N       1.125624    3.428511    0.336395
C       1.312076    2.038669   -0.096245
C       2.039618    1.272536    0.928797
N       2.577361    0.659558    1.748299
H      -2.065905    1.556223    0.141864
H      -1.103585    0.668702    1.334157
H      -1.635402    3.102732    1.993153
H      -0.031408    4.649213    1.482127
H       1.896361    2.018461   -1.020638
