15

O      -0.694693    0.769918    0.710024
C       0.044212    0.966758   -0.216768
C       1.311273    1.797594   -0.143270
C       1.299563    2.924436   -1.185068
C       2.637080    3.719586   -1.216521
C       3.771811    2.852304   -1.565239
N       4.641613    2.135932   -1.816390
C       2.547086    4.855797   -2.143918
N       2.435295    5.752746   -2.861709
H      -0.161708    0.533054   -1.222728
H       1.411645    2.187128    0.873961
H       2.157742    1.125580   -0.342794
H       1.111678    2.524258   -2.186421
H       0.501795    3.640125   -0.966060
H       2.828877    4.124761   -0.214120
