20

C       0.427844    1.459805    0.284310
C      -0.220581    0.153980   -0.189395
C       0.531639   -0.465928   -1.350605
C       1.793645   -1.282982   -1.123585
O       2.210519   -1.569222    0.179321
C       0.529747   -1.953210   -1.614415
O      -0.124093   -2.759909   -0.673406
C       0.215820   -4.131912   -0.811256
H       1.445841    1.273196    0.638482
H       0.482242    2.194258   -0.527050
H      -0.142658    1.909797    1.103019
H      -0.270659   -0.554201    0.641685
H      -1.259129    0.335817   -0.492219
H       0.537710    0.142253   -2.253202
H       2.639766   -1.153445   -1.791058
H       1.511083   -2.105871    0.575361
H       0.451335   -2.315078   -2.639709
H      -0.089298   -4.517256   -1.794637
H       1.294720   -4.297630   -0.690053
H      -0.325504   -4.675297   -0.033461
