10

O      -0.367519    0.055153    0.004406
C      -0.096428    1.220654    0.008882
N       1.193779    1.762908    0.000135
C       2.407045    1.072209   -0.014532
O       2.541937   -0.118976   -0.022986
C       3.612734    2.041980   -0.021078
O       4.740227    1.646528   -0.034333
H      -0.852147    2.031056    0.019270
H       1.241375    2.772594    0.005087
H       3.366816    3.130815   -0.012877
