20

C       0.043384    1.580307   -0.147487
C      -0.024470    0.055106   -0.005724
C      -1.449505   -0.504304    0.035586
C      -2.252838   -0.020076    1.241588
C      -2.234080   -0.441556   -1.302225
O      -2.399844   -1.878624   -1.335503
C      -1.592109   -2.056934   -0.162311
C      -0.369327   -2.821988   -0.430405
N       0.598312   -3.423139   -0.626347
H       1.081962    1.905747   -0.254012
H      -0.501291    1.925920   -1.033385
H      -0.374226    2.094732    0.722836
H       0.513334   -0.406707   -0.840965
H       0.506473   -0.255054    0.903185
H      -2.384287    1.065542    1.218356
H      -3.249490   -0.472705    1.257960
H      -1.747062   -0.277891    2.178608
H      -3.199835    0.074479   -1.273760
H      -1.656585   -0.085170   -2.163640
H      -2.144394   -2.566063    0.637419
