22

C       0.282126    1.536941    0.120481
C       0.013554    0.026895   -0.003156
C       0.722670   -0.712496    1.147572
C      -1.499203   -0.252578    0.069387
C       0.541691   -0.529530   -1.342235
C       0.000637    0.099189   -2.657698
N       1.190637    0.566943   -3.390135
C       2.175465    0.302290   -2.639996
O       1.980969   -0.304319   -1.446537
H       1.352875    1.749893    0.060545
H      -0.223680    2.113111   -0.660643
H      -0.080991    1.905666    1.085242
H       0.362265   -0.352015    2.116729
H       0.532867   -1.790792    1.101131
H       1.803955   -0.558463    1.105262
H      -2.052970    0.277780   -0.712001
H      -1.712186   -1.322787   -0.032848
H      -1.898585    0.073523    1.035044
H       0.403364   -1.617092   -1.342074
H      -0.548883   -0.625749   -3.265573
H      -0.672141    0.944607   -2.480467
H       3.213384    0.523990   -2.864153
