14

C       0.245130    1.433683   -0.053277
N      -0.022053   -0.000985   -0.006578
N      -0.254130   -0.620774   -1.191833
C      -0.491308   -1.882119   -1.174291
C      -0.524956   -2.681638    0.041638
N      -0.759165   -3.922588    0.050908
O      -0.277207   -1.970967    1.208775
C      -0.020891   -0.625174    1.225523
O       0.187087   -0.055214    2.259234
H       1.232516    1.651304    0.360797
H       0.200920    1.729884   -1.099733
H      -0.502315    1.979894    0.527037
H      -0.676539   -2.378580   -2.118134
H      -0.737795   -4.295714    1.001176
