15

O       0.070691    1.360247   -0.033087
C       0.005380   -0.034898    0.047242
C      -1.452061   -0.545684   -0.044703
C      -1.581908   -2.080260    0.208942
O      -2.411366   -2.168363    1.390852
C      -2.668965   -0.899031    1.755631
N      -2.221269    0.069615    1.067715
C      -2.047793   -0.157786   -1.332362
N      -2.512602    0.095823   -2.358833
H      -0.560595    1.707341    0.610546
H       0.596806   -0.439915   -0.780341
H       0.419696   -0.424501    0.991835
H      -2.074516   -2.615833   -0.602906
H      -0.618422   -2.548018    0.430468
H      -3.267160   -0.800129    2.654426
