22

C       0.065190    1.530562    0.175023
C      -0.028286    0.035071   -0.159554
C      -1.436227   -0.529898   -0.067613
C      -2.485506    0.008953   -1.044962
C      -3.689683   -0.849445   -0.590057
N      -3.140261   -1.679398    0.505873
C      -1.725169   -2.069166    0.084445
C      -1.329567   -2.031669    1.571593
C      -2.185848   -0.783128    1.294537
H       1.102412    1.876102    0.127915
H      -0.518036    2.139538   -0.522324
H      -0.307088    1.733401    1.185002
H       0.348353   -0.133158   -1.177438
H       0.645253   -0.518579    0.504033
H      -2.657553    1.082992   -0.925687
H      -2.198476   -0.164897   -2.087930
H      -4.524691   -0.254633   -0.207737
H      -4.076974   -1.503099   -1.377456
H      -1.553902   -2.859590   -0.651382
H      -1.798080   -2.790803    2.198711
H      -0.277934   -1.883916    1.816131
H      -2.567804   -0.043482    2.003037
