14

N      -0.083771   -1.133849   -0.059089
C      -0.029828    0.022444   -0.010686
C       0.032312    1.436081    0.040897
C      -0.990444    2.354110    0.739379
O      -0.351668    3.338174    1.480748
C       0.780000    3.590576    0.694726
C       0.500454    3.392634   -0.782639
C       1.281777    2.340801   -0.000495
C      -0.756960    2.506277   -0.740944
H      -1.902616    1.965112    1.169194
H       1.436907    4.356713    1.081331
H       0.806026    4.054465   -1.579331
H       2.309709    2.016531   -0.065243
H      -1.501920    2.367914   -1.510763
