18

C       0.426594    1.008643    0.238723
N       0.124904   -0.399223    0.092932
C       0.379276   -0.948510   -1.014530
N       0.027686   -2.269214   -1.299607
C       0.964157   -3.318176   -1.657281
C       2.457367   -3.094839   -1.659822
C       0.174423   -3.369959   -0.362431
C       0.874011   -3.214447    0.892457
N       1.436695   -3.168473    1.901408
H       1.109511    1.147664    1.084032
H       0.878872    1.463744   -0.657371
H      -0.491775    1.556547    0.478995
H       0.816208   -0.434349   -1.882649
H       0.596737   -3.966594   -2.451409
H       2.777241   -2.483097   -0.812984
H       2.979052   -4.055045   -1.603814
H       2.767538   -2.599762   -2.585562
H      -0.687831   -4.028253   -0.294810
