17

C      -0.069404    1.447459   -0.108325
O      -0.010552    0.029561    0.049245
C      -1.244641   -0.577304    0.062765
C      -1.932264   -1.029393    1.169407
N      -1.662311   -0.919524    2.546018
N      -3.072568   -1.634496    0.716397
C      -3.139119   -1.571986   -0.671940
C      -2.008625   -0.922927   -1.093722
O      -1.648780   -0.660700   -2.385031
H       0.962367    1.807778   -0.123701
H      -0.567319    1.725928   -1.045580
H      -0.609141    1.917618    0.723728
H      -0.854514   -0.321693    2.680955
H      -1.437500   -1.820908    2.960171
H      -3.830198   -1.903638    1.318145
H      -3.953312   -2.009113   -1.222501
H      -0.698741   -0.497038   -2.382192
