18

C       0.090711    1.377510   -0.084458
N      -0.010259   -0.056480    0.041537
N       0.013234   -0.821081   -1.090682
C       0.019752   -2.063593   -0.641128
O       0.018930   -3.131070   -1.471591
C       0.009296   -2.135502    0.771391
N      -0.007456   -3.266073    1.634869
C      -0.004947   -0.807194    1.172983
C      -0.018361   -0.252508    2.556306
H       1.134824    1.712582   -0.123808
H      -0.407341    1.676776   -1.007910
H      -0.401619    1.860779    0.762254
H       0.010062   -2.785281   -2.372827
H       0.855431   -3.796966    1.555369
H      -0.752740   -3.904937    1.373322
H       0.884034    0.327721    2.782135
H      -0.881582    0.400008    2.731618
H      -0.072333   -1.089103    3.256327
