21

C      -0.043761    1.602709   -0.200517
C       1.527791    1.469640    0.052319
C       1.157704    0.204687    0.882334
C       1.225306   -1.345527    1.008527
C      -0.374009   -1.248739    0.895207
C      -0.955745   -0.950487    2.272809
C      -0.421175    0.413292    2.737575
O       0.862827    0.714236    2.200427
C      -0.062398    0.042636    0.025451
H      -0.515337    2.196996    0.581399
H      -0.370505    1.961607   -1.178919
H       2.059857    1.240804   -0.874453
H       2.025635    2.280442    0.587961
H       1.661833   -1.847674    0.142526
H       1.634393   -1.755301    1.936177
H      -0.887756   -2.074590    0.397820
H      -2.050677   -0.920121    2.242288
H      -0.675534   -1.751230    2.967103
H      -1.134848    1.195550    2.439183
H      -0.320893    0.465365    3.826022
H       0.283133   -0.362391   -0.931510
