15

C       0.024727    1.537044    0.048306
C       0.024890    0.037276    0.003197
C      -0.874162   -0.830852    0.806027
C       0.630759   -0.959043    1.041896
C       1.243749   -1.717866   -0.090388
O       2.077552   -2.576783   -0.157705
C       0.590878   -0.801235   -1.160855
H       1.007632    1.943341   -0.213702
H      -0.704083    1.949366   -0.659442
H      -0.239235    1.903862    1.045219
H      -1.397159   -0.352220    1.628686
H      -1.425321   -1.647518    0.346917
H       1.060046   -0.790404    2.022297
H      -0.131937   -1.245524   -1.851911
H       1.371597   -0.293345   -1.735847
