19

C      -0.201561    1.482440    0.065619
C       0.068016   -0.023788    0.045432
C       0.899613   -0.524606   -1.117471
C       1.736215   -1.496324   -0.756465
C       1.609909   -1.816419    0.715345
C       0.869080   -0.565845    1.277767
O       1.794800    0.383446    1.787520
C      -0.032882   -0.910184    2.453100
O      -1.012924   -1.604290    2.365880
H       0.725413    2.060585    0.102739
H      -0.750648    1.778566   -0.833838
H      -0.804465    1.765930    0.933613
H      -0.897137   -0.549967    0.039512
H       0.770875   -0.144132   -2.125233
H       2.395198   -2.044312   -1.420426
H       1.014781   -2.726005    0.867498
H       2.562991   -1.956638    1.236083
H       2.428765    0.578029    1.088463
H       0.297492   -0.465629    3.416736
