18

C       0.008701    1.568560   -0.210262
C      -0.033150    0.075103    0.010728
C      -1.201832   -0.576907    0.110329
C      -1.328737   -2.060721    0.316598
O      -0.568872   -2.823172   -0.618704
C       0.759012   -3.065891   -0.232969
C       1.608737   -1.869580    0.083490
C       1.278379   -0.571642    0.144455
H       0.561146    2.069148    0.594942
H       0.525654    1.816373   -1.145469
H      -0.994842    1.998277   -0.253519
H      -2.127860   -0.014783    0.019012
H      -1.038316   -2.336114    1.344068
H      -2.370048   -2.368743    0.180282
H       0.805125   -3.765247    0.624263
H       1.209858   -3.601673   -1.079875
H       2.652018   -2.130367    0.259524
H       2.095880    0.121557    0.338752
