15

O      -0.157366   -0.085091    0.002464
C      -0.055330    1.114408    0.006330
C       1.250563    1.877656   -0.001653
C       2.472545    0.960460   -0.016984
C       3.782821    1.771060   -0.024364
C       4.965924    0.913253   -0.039231
N       5.892365    0.223286   -0.050797
C      -1.264349    1.967976    0.020032
N      -2.196715    2.651659    0.030481
H       1.234008    2.551616   -0.870309
H       1.249499    2.542863    0.873912
H       2.451065    0.300645    0.854695
H       2.435796    0.309536   -0.894826
H       3.822190    2.429394   -0.900508
H       3.837645    2.420424    0.857648
