15

O      -0.305973    0.350886   -0.616744
C       0.075235    1.140177    0.214427
C       1.303291    1.945428    0.072946
O       1.677555    2.872154    1.077588
C       2.091879    3.831513    0.060508
C       1.779901    2.845024   -1.061440
C       2.483229    1.529861   -0.805567
C       3.813853    1.437472   -0.284169
C       4.932604    1.365630    0.150260
H      -0.480962    1.334424    1.156154
H       1.432245    4.704054    0.069966
H       3.136161    4.133129    0.182502
H       1.289420    3.062276   -2.000351
H       2.185398    0.758334   -1.511360
H       5.919423    1.292386    0.535717
