18

C      -0.248483    1.420512   -0.194124
N      -0.209703   -0.023192   -0.382522
C      -1.152522   -0.719997    0.052401
O      -2.305518   -0.355332    0.733671
C      -2.779429   -1.755830    0.728891
C      -3.853381   -2.016268   -0.283412
C      -3.356073   -2.572258   -1.389852
C      -1.864916   -2.819661   -1.323735
C      -1.468445   -2.202964    0.033510
H       0.601218    1.725283    0.427396
H      -0.123602    1.910722   -1.165811
H      -1.171195    1.787316    0.270412
H      -2.994527   -2.069264    1.752442
H      -4.891744   -1.755666   -0.117436
H      -3.940020   -2.833026   -2.266531
H      -1.636765   -3.891773   -1.364713
H      -1.327995   -2.354265   -2.157603
H      -0.773507   -2.808926    0.614620
