16

O       0.012443    0.016529    0.007098
C       0.006916    1.222013    0.011807
C      -1.257437    2.102426    0.031684
N      -0.720987    3.448823    0.029592
C       0.647816    3.545820    0.012258
O       1.294726    4.571641    0.007566
C       1.170337    2.141559   -0.000022
C       2.468500    1.791906    0.721676
C       2.449060    1.797523   -0.758190
H      -1.875469    1.882576   -0.847945
H      -1.852137    1.876033    0.925625
H      -1.289330    4.280445    0.040360
H       2.942490    2.621885    1.233320
H       2.469560    0.836894    1.235058
H       2.436549    0.846432   -1.278652
H       2.909546    2.631400   -1.275791
