23

C      -0.076073    1.594746    0.023562
C       0.113180    0.078964   -0.106559
C       0.685181   -0.557680    1.154397
C      -0.125766   -0.598977    2.483202
C      -1.547801   -1.205412    2.354690
C      -0.946452   -2.630431    2.281595
C      -0.320881   -2.958646    0.903726
C       0.918509   -2.091561    1.246576
C       0.438631   -2.043847    2.743821
H       0.874921    2.095148    0.238433
H      -0.480143    2.028242   -0.896606
H      -0.767342    1.839105    0.837452
H      -0.846707   -0.385198   -0.362061
H       0.784512   -0.137666   -0.948759
H       1.644919   -0.075793    1.386471
H      -0.005962    0.243385    3.166001
H      -2.102253   -1.067706    3.288299
H      -2.185615   -0.875879    1.527101
H      -1.483176   -3.430062    2.793971
H      -0.038425   -4.014865    0.850960
H      -0.899375   -2.714873    0.006110
H       1.890114   -2.463445    0.916805
H       1.015010   -2.358200    3.610933
