16

C      -0.017622    1.443867    0.017505
C       0.014041   -0.052774   -0.025954
C      -0.945997   -0.968411    0.738779
C       0.549194   -1.067580    0.963269
C       0.584425   -2.101996   -0.201964
C      -0.977872   -2.153204   -0.263648
O      -1.008352   -1.599393   -1.599339
C       0.255484   -0.991590   -1.248493
H       0.941794    1.875559   -0.289499
H      -0.792534    1.839696   -0.649139
H      -0.232836    1.805505    1.028598
H      -1.720659   -0.586177    1.389895
H       1.140907   -0.947754    1.859244
H       1.254617   -2.943335   -0.357411
H      -1.627385   -3.014785   -0.117012
H       0.855806   -0.671437   -2.099595
