20

C      -0.368689    1.318411    0.039856
O      -0.255116   -0.080303   -0.053728
C       0.752042   -0.486072   -0.956793
C       0.773546   -1.989352   -0.986397
N      -0.058577   -2.644958   -1.997559
C       1.419353   -2.747462   -2.103422
C       2.064743   -2.106407   -3.217639
C       2.640665   -1.588273   -4.140184
C       3.321414   -0.961340   -5.263471
H       0.567031    1.783375    0.391141
H      -0.632710    1.773565   -0.927927
H      -1.161717    1.535691    0.759706
H       0.559099   -0.101304   -1.968739
H       1.736003   -0.102391   -0.633778
H       0.833904   -2.446764   -0.000227
H      -0.433575   -3.519657   -1.639402
H       1.865594   -3.698128   -1.816530
H       3.986853   -1.669558   -5.769481
H       2.603386   -0.594584   -6.005298
H       3.928966   -0.108812   -4.939800
