18

O       0.049601    1.487952   -0.245679
C       0.024761    0.070339   -0.228561
C      -1.367250   -0.481108    0.116048
C      -1.399488   -1.981942    0.107425
C      -1.602444   -2.850484   -1.147246
C      -2.497890   -3.021281    0.024504
O      -1.835448   -3.859475    1.011418
C      -0.855601   -2.880705    1.174630
N       0.081775   -2.794633    2.002178
H      -0.025908    1.794294    0.663460
H       0.307626   -0.247977   -1.237682
H       0.766712   -0.344949    0.467392
H      -1.660034   -0.116932    1.109578
H      -2.094148   -0.081683   -0.600041
H      -2.016822   -2.302983   -1.989216
H      -0.901982   -3.638953   -1.404166
H      -3.575534   -2.950420    0.075519
H       0.109295   -3.605117    2.623042
