19

O      -0.170653    1.457477    0.189095
C      -0.016593    0.040790    0.055256
C       0.896349   -0.551767    1.138741
C       0.763355   -2.052398    1.244143
C      -0.361621   -2.689275    0.911754
C      -1.573115   -1.973700    0.439140
C      -2.154370   -0.858392    1.318723
C      -1.414089   -0.533633    0.050723
O      -2.171796   -0.108803   -1.046401
H       0.657071    1.876277   -0.066062
H       0.407571   -0.192307   -0.933466
H       1.935374   -0.274645    0.922104
H       0.653237   -0.070021    2.095782
H       1.614798   -2.607883    1.625829
H      -0.428223   -3.768937    1.012674
H      -2.292944   -2.542724   -0.138939
H      -3.228290   -0.716196    1.285475
H      -1.690098   -0.690220    2.283726
H      -2.148982    0.856212   -1.017812
