27

C      -0.006051    1.626825   -0.107581
C      -0.013721    0.098638    0.084290
C       0.782898   -0.275002    1.354052
C       2.295452   -0.229082    1.162715
O       2.897145   -0.574368    2.403104
C      -1.449572   -0.529574    0.048016
C      -2.220906   -0.017722   -1.185747
C      -1.339620   -2.063082   -0.082484
C      -2.256620   -0.188810    1.315871
H       1.010923    2.022843   -0.029708
H      -0.391375    1.923007   -1.085971
H      -0.606281    2.130982    0.657826
H       0.516336   -0.336303   -0.776992
H       0.521605    0.400367    2.177375
H       0.538158   -1.284937    1.695181
H       2.586665   -0.937850    0.369556
H       2.617813    0.771914    0.836416
H       3.851695   -0.532497    2.295415
H      -1.646194   -0.170580   -2.106706
H      -3.167003   -0.559112   -1.292991
H      -2.460659    1.046411   -1.111201
H      -0.828672   -2.521890    0.768442
H      -2.336046   -2.514208   -0.143251
H      -0.794242   -2.342507   -0.991231
H      -2.360596    0.892185    1.453897
H      -3.266734   -0.607169    1.247337
H      -1.791969   -0.599337    2.217244
