14

C       0.327659    1.550272    0.195551
O       1.193332    0.484572   -0.185112
C      -0.183316    0.176302    0.099712
C      -0.468346   -0.650790    1.292819
N      -0.094628   -0.267102    2.514640
N      -0.500321   -1.263743    3.317501
C      -1.127195   -2.266028    2.655259
C      -1.127499   -1.902617    1.326480
H       0.509643    1.967717    1.183346
H       0.087043    2.267104   -0.589274
H      -0.757749   -0.099825   -0.784065
H      -0.322686   -1.194085    4.305273
H      -1.510975   -3.133399    3.168318
H      -1.535503   -2.457693    0.497407
