13

O      -0.018953   -0.067671   -0.058169
C      -0.043899    1.148110   -0.023545
C       1.182005    1.929340    0.012314
C       2.189026    2.588312    0.042340
C      -1.307398    1.932803   -0.014647
C      -2.486439    1.351991   -0.786604
C      -2.501350    1.310694    0.700305
H       3.089277    3.152875    0.068600
H      -1.200805    3.010053    0.016485
H      -3.127041    2.057494   -1.302630
H      -2.287422    0.424379   -1.310680
H      -2.312375    0.355327    1.176006
H      -3.152487    1.986860    1.241791
