20

C      -0.023858    1.489856   -0.028727
C      -0.021792   -0.009620    0.061271
N       1.210318   -0.750477   -0.236657
C       0.603558   -0.887437    1.093304
C       1.393700   -0.500007    2.310721
C      -0.529272   -1.958815    1.194671
C      -1.801610   -1.077814    1.310027
C      -1.343742   -0.815538   -0.149390
O      -0.881006   -2.198277   -0.200928
H       0.917410    1.901510    0.343753
H      -0.140689    1.819185   -1.067817
H      -0.845313    1.924159    0.552682
H       0.987215   -1.571432   -0.799715
H       1.991257    0.394032    2.116279
H       0.737888   -0.298405    3.165537
H       2.082745   -1.301642    2.601260
H      -0.356195   -2.866049    1.774249
H      -2.722705   -1.660783    1.372320
H      -1.800098   -0.244630    2.017830
H      -2.014770   -0.537908   -0.962768
