16

C       0.188717    1.189267    0.659880
C      -0.022367   -0.102091   -0.086802
C      -1.396422   -0.610098   -0.310051
N      -0.606280   -0.095455   -1.440886
N       1.404908    1.871998    0.224098
C       2.056339    1.862158   -0.954564
N       3.089575    2.673094   -0.878990
N       3.057992    3.187600    0.378537
N       2.058443    2.719230    1.048728
H      -0.668987    1.857970    0.517159
H       0.299983    1.016064    1.733552
H       0.782059   -0.824903    0.030229
H      -1.576154   -1.680405   -0.322409
H      -2.228874   -0.014915    0.056577
H      -0.927709    0.840868   -1.679278
H       1.763396    1.265861   -1.802902
