13

C       0.021568    1.494940    0.017993
C      -0.039426    0.006851    0.037018
N       0.014278   -0.741190   -1.030392
O      -0.070927   -2.040564   -0.602820
N      -0.192698   -2.112403    0.759050
C      -0.164399   -0.872498    1.156106
O      -0.267735   -0.463405    2.440293
C       0.147498   -1.322267    3.444753
O      -0.015128   -1.038860    4.584028
H       0.865186    1.855555    0.614477
H       0.133249    1.850809   -1.007005
H      -0.888669    1.924825    0.447128
H       0.624681   -2.228496    3.045361
