21

C       0.111970    1.544044   -0.024003
C      -0.008797    0.046947    0.067501
C      -1.142919   -0.667768    0.001587
C      -2.532885   -0.100635   -0.121793
C      -1.079575   -2.156637    0.055615
C      -0.220744   -2.903428   -0.975160
C       0.240515   -2.759984    0.445930
O       1.280848   -1.923526    0.843097
C       1.327407   -0.652529    0.214757
H       0.853296    1.827317   -0.783779
H      -0.824743    2.038049   -0.284077
H       0.465759    1.969490    0.924654
H      -2.557838    0.989320   -0.146811
H      -3.022868   -0.472673   -1.030664
H      -3.155455   -0.427811    0.721028
H      -1.986034   -2.653229    0.388613
H      -0.547711   -3.884196   -1.304133
H       0.242837   -2.300379   -1.747471
H       0.241899   -3.646192    1.070958
H       1.823461   -0.732325   -0.769782
H       1.992796   -0.048571    0.842913
