17

O       0.113231   -0.044889    0.020423
C       0.021469    1.175857    0.020915
C      -1.220924    1.919052    0.055845
C      -1.214301    3.278278    0.109342
N      -0.092099    4.040397    0.034409
C       1.131914    3.433577   -0.483840
C       1.278163    2.026091    0.053613
C       2.249544    1.683403    1.135724
N       2.535997    1.353735   -0.262542
H      -2.150563    1.370761    0.130154
H      -2.138166    3.835135    0.239131
H      -0.215098    5.026663   -0.126586
H       1.096827    3.389651   -1.584721
H       1.991558    4.046369   -0.202024
H       2.863995    2.471456    1.564286
H       1.977639    0.877701    1.811364
H       2.299110    0.370630   -0.413110
