14

C      -0.074977    1.476315   -0.087209
N       0.192766    0.058879    0.098898
C       0.662415   -0.661224   -0.981875
N       1.173301   -0.119187   -2.084861
N       1.518974   -1.181467   -2.824305
N       1.299914   -2.377814   -2.270283
C       0.744924   -2.069754   -1.112480
O       0.305828   -2.968997   -0.205061
H       0.850392    1.986233   -0.367103
H      -0.817694    1.681027   -0.872745
H      -0.429407    1.894720    0.857503
H      -0.516445   -0.438551    0.617417
H       2.058882   -1.082941   -3.665285
H       0.471201   -3.850177   -0.561289
