23

C       0.035130    1.512811   -0.193121
C       0.003094    0.002422    0.083242
C      -1.395600   -0.554897    0.084639
C      -2.420287   -0.289003    1.202908
C      -2.916767   -1.768027    1.101097
C      -1.912181   -2.010868   -0.026725
C      -2.090959   -1.030922   -1.165702
C      -3.425244   -0.533808   -1.678725
O      -1.156062   -1.223823   -2.206976
H       1.058805    1.898545   -0.154912
H      -0.371622    1.734118   -1.184970
H      -0.556600    2.067949    0.543257
H       0.595206   -0.520722   -0.672055
H       0.471013   -0.201825    1.055896
H      -1.930277   -0.087653    2.159167
H      -3.156695    0.501310    1.026234
H      -2.684473   -2.339122    2.002844
H      -3.973409   -1.926445    0.860650
H      -1.339798   -2.918313   -0.189290
H      -4.143344   -0.346008   -0.878066
H      -3.289016    0.394651   -2.242421
H      -3.874361   -1.272980   -2.354458
H      -1.453861   -1.976632   -2.729188
