17

C       0.205006   -1.231487    0.129350
C       0.050777   -0.040650    0.076600
C      -0.151503    1.410290    0.020424
C      -0.762971    1.975718    1.319812
C       0.492280    2.277336    2.144688
C       1.460991    2.790918    1.058471
O       1.106435    2.085891   -0.142658
C       1.359559    4.238597    0.850530
C       1.274762    5.427169    0.693150
H       0.345685   -2.283590    0.165623
H      -0.768855    1.651319   -0.852329
H      -1.303548    2.899532    1.094913
H      -1.446370    1.273671    1.798600
H       0.332369    3.007054    2.939094
H       0.891799    1.358149    2.582539
H       2.500437    2.535868    1.293863
H       1.207763    6.476906    0.546208
