18

C      -0.061706    1.459871    0.014410
O       1.285536    1.929651    0.163839
C       2.153542    0.862079   -0.167243
C       3.371265    0.585190    0.747998
C       3.499167   -0.947730    0.686599
N       2.595215   -1.647687    1.619692
C       2.217398   -1.542024    0.183032
C       1.314091   -0.387687   -0.055948
C       0.034830   -0.052665    0.037029
H      -0.665987    1.853608    0.842080
H      -0.500605    1.842957   -0.923242
H       2.523179    0.985892   -1.203065
H       4.279023    1.086544    0.403719
H       3.154942    0.907506    1.770018
H       4.458850   -1.400217    0.459594
H       2.953536   -2.587158    1.785779
H       2.185204   -2.443122   -0.419461
H      -0.822829   -0.698402    0.174582
