16

C       0.092786    1.355408    0.576898
C      -0.014355   -0.055776    0.051261
C      -1.305437   -0.609078   -0.371404
O      -0.342680   -0.177323   -1.335100
N       1.346893    1.982040    0.195170
C       1.837866    2.226658   -1.044276
C       3.050859    2.826841   -0.809358
N       3.240670    2.918476    0.536153
N       2.210216    2.406766    1.144402
H      -0.744652    1.952199    0.201057
H       0.072342    1.367742    1.669369
H       0.765683   -0.737986    0.389083
H      -1.469807   -1.683631   -0.322521
H      -2.203390    0.003153   -0.300268
H       1.302262    1.949486   -1.936138
H       3.782955    3.190394   -1.511913
