22

C       0.075053    1.523912   -0.011388
C      -0.003133   -0.001555    0.041882
O       0.701388   -0.506321    1.179319
C      -1.438599   -0.540624    0.013370
C      -2.255954   -0.142012   -1.245589
C      -3.286214   -1.277792   -1.459961
C      -2.609989   -2.502431   -0.871314
N      -1.202792   -2.644851   -1.310390
C      -1.509832   -2.060891    0.016931
H       1.117052    1.848872    0.055005
H      -0.352360    1.918607   -0.937890
H      -0.476398    1.971220    0.826462
H       0.528065   -0.426381   -0.817819
H       0.325853   -0.085987    1.961179
H      -1.957093   -0.180054    0.916366
H      -2.731368    0.836320   -1.142675
H      -1.584907   -0.093749   -2.107412
H      -4.211098   -1.080290   -0.904121
H      -3.554396   -1.399955   -2.514218
H      -3.186709   -3.399226   -0.667046
H      -0.909870   -3.610165   -1.184257
H      -1.221872   -2.609465    0.906050
