18

C      -0.090967    1.562548    0.000958
C       0.003686    0.065157    0.028031
C      -0.952490   -0.884499   -0.698064
O      -0.894726   -1.850569    0.385012
C      -0.084753   -0.950243    1.150276
C       1.237768   -0.707335    0.476827
C       1.965634   -1.768739   -0.316228
O       2.717534   -2.633806    0.524637
H       0.491035    2.009908    0.812772
H       0.295738    1.970322   -0.940828
H      -1.128870    1.897962    0.108123
H      -1.965247   -0.471791   -0.783948
H      -0.648102   -1.309486   -1.661306
H      -0.289866   -0.863603    2.211961
H       1.898916   -0.086098    1.079401
H       1.258023   -2.337359   -0.932788
H       2.693859   -1.304213   -0.989383
H       2.088019   -3.089845    1.093160
