12

C      -0.007292    1.357994   -0.028423
O       0.028382   -0.078397   -0.048366
C       0.650484   -0.627018   -1.095073
O       1.167289   -0.007275   -1.995340
C       0.645021   -2.144092   -1.042641
O       1.305139   -2.679659   -2.153570
H       1.006372    1.765160   -0.012249
H      -0.529164    1.739459   -0.909172
H      -0.543173    1.626912    0.881218
H       1.121306   -2.457555   -0.101533
H      -0.400779   -2.482817   -0.993629
H       1.597556   -1.917514   -2.675310
