15

O      -0.039012    1.318681    0.127338
N       0.026134   -0.058395    0.064749
C      -1.115143   -0.634398    0.007492
C      -1.223645   -2.139943   -0.056751
C      -2.638042   -2.427230    0.498633
C      -3.479038   -1.227035    0.031651
C      -2.507412   -0.042491    0.026099
O      -2.807188    1.124551    0.035170
H       0.892125    1.564591    0.179175
H      -1.159212   -2.470935   -1.102195
H      -0.422730   -2.639705    0.491197
H      -3.033338   -3.386952    0.159157
H      -2.605651   -2.453214    1.593216
H      -3.826550   -1.370987   -1.000753
H      -4.358095   -1.007888    0.641046
