14

C      -0.092573    1.538869    0.011591
C       0.114788    0.036773    0.001820
O       1.202952   -0.476297   -0.010978
C      -1.186265   -0.795100    0.009578
C      -0.985233   -2.230538   -0.000344
C      -0.830748   -3.427122   -0.008503
C      -0.594876   -4.848248   -0.018678
O      -1.465874   -5.687752   -0.015395
H       0.874178    2.042437    0.005768
H      -0.676088    1.850694   -0.862033
H      -0.660739    1.841459    0.898472
H      -1.777615   -0.500557    0.888007
H      -1.794327   -0.490826   -0.853995
H       0.478304   -5.126168   -0.030116
