22

C      -0.025889    1.521581    0.062243
C      -0.023122    0.020214    0.020996
C       1.170829   -0.819400   -0.374835
C       0.610369   -0.976141    1.020412
C       1.375704   -0.689606    2.280662
C      -0.649837   -1.823404    0.941231
C      -0.737785   -3.318635    1.008629
N      -1.767555   -0.945326    1.389442
C      -1.258032   -0.850700   -0.010631
H       0.946224    1.915078    0.377930
H      -0.245605    1.949618   -0.923453
H      -0.782189    1.884319    0.765718
H       1.073417   -1.615882   -1.109331
H       2.113951   -0.282742   -0.436535
H       2.056667    0.158240    2.150787
H       0.688884   -0.448548    3.098523
H       1.983126   -1.549678    2.588383
H      -0.623187   -3.678457    2.038101
H      -1.703313   -3.678619    0.636676
H       0.049222   -3.783442    0.404908
H      -2.619341   -1.509999    1.356313
H      -1.917324   -1.047542   -0.850069
