17

C      -0.001169    1.446762    0.099396
C      -0.028881   -0.044257   -0.034789
C       0.610679   -0.960384   -1.113284
C       0.014349   -1.896693   -0.033941
N       0.509932   -0.970095    1.068794
C       0.113011   -3.329988    0.061521
N       0.180499   -4.482770    0.122605
C      -1.275591   -0.992889   -0.045849
O      -2.116343   -1.007494    1.043902
H       1.022275    1.820636    0.207398
H      -0.442997    1.917663   -0.784428
H      -0.576860    1.757350    0.976611
H       0.162287   -0.981650   -2.111317
H       1.702193   -0.948886   -1.156605
H       1.534234   -0.956538    1.069454
H      -1.869326   -1.021175   -0.960276
H      -1.535368   -0.997350    1.820684
