18

C       0.319704    1.381484   -0.037857
N       0.103499   -0.055095   -0.007751
C      -1.058081   -0.595686   -0.013785
C      -2.314956    0.246489   -0.032749
O      -3.422549   -0.081670    0.315207
N      -1.130073   -1.983962    0.052610
C       0.137317   -2.702131    0.203395
C      -2.298193   -2.719160   -0.130310
N      -2.285255   -3.993251   -0.144204
H      -0.037586    1.848983   -0.965931
H      -0.142263    1.910515    0.805684
H       1.396346    1.562234    0.018132
H      -2.119242    1.279118   -0.374185
H       0.671100   -2.320146    1.075628
H      -0.096720   -3.757795    0.314350
H       0.772614   -2.542666   -0.672297
H      -3.182845   -2.100384   -0.240438
H      -3.231485   -4.341794   -0.281031
