15

N       0.356564    1.089225   -0.701124
C      -0.187818    0.342955    0.417752
C      -1.509457   -0.374708    0.208274
N      -1.995819   -1.059139    1.257226
C      -3.152281   -1.669407    1.026326
N      -3.836968   -1.654950   -0.117170
C      -3.248946   -0.941209   -1.080777
O      -3.865629   -0.872548   -2.259547
N      -2.095838   -0.282905   -0.983875
H       0.464174    0.466831   -1.497453
H      -0.325385    1.778012   -1.007089
H       0.538496   -0.409966    0.749037
H      -0.316402    1.009504    1.279917
H      -3.587581   -2.237492    1.845978
H      -4.677766   -1.392867   -2.175813
