19

C      -1.928207    1.635261   -1.324840
C      -2.022657    0.120468   -1.351636
O      -1.565054   -0.373808   -0.094506
C      -1.572186   -1.771051    0.020031
C      -1.433964   -2.226262    1.496776
O      -2.647778   -2.987129    1.423678
C      -2.927383   -2.516662    0.088847
C      -0.522709   -2.398086   -0.884706
O      -0.612074   -3.483725   -1.395557
H      -2.279906    2.053576   -2.272296
H      -2.540871    2.042021   -0.515598
H      -0.894054    1.952931   -1.165941
H      -3.060294   -0.201295   -1.525628
H      -1.413686   -0.291334   -2.171786
H      -0.565895   -2.845623    1.750276
H      -1.501166   -1.373375    2.183019
H      -3.800845   -1.854840    0.057416
H      -3.038606   -3.340941   -0.621436
H       0.379744   -1.756389   -1.009650
