13

N       0.026364    1.447167    0.164276
C      -0.011034    0.052114    0.050606
C      -1.167198   -0.669171    0.016865
F      -2.374724   -0.113320    0.008456
N      -1.145820   -2.025975   -0.023912
C       0.035419   -2.791989   -0.026076
O       0.010549   -4.008799   -0.058491
C       1.208430   -1.921687    0.006673
N       1.171463   -0.621391    0.038840
H       0.916507    1.807249   -0.154634
H      -0.744193    1.915722   -0.293162
H      -2.021440   -2.532479   -0.051335
H       2.176287   -2.414295   -0.002538
