19

C       0.057905    1.646849   -0.252914
C      -0.100160    0.133798   -0.105899
N      -1.492402   -0.253388   -0.321301
C      -1.756659   -1.251010   -1.021002
O      -0.909654   -2.127019   -1.714697
C      -2.039594   -2.830324   -2.302175
C      -2.514098   -4.041189   -1.478329
N      -3.301963   -3.138352   -0.586483
C      -3.016741   -1.967046   -1.466074
H       1.085943    1.950809   -0.031496
H      -0.180706    1.965819   -1.272365
H      -0.616869    2.170670    0.430097
H       0.586574   -0.391029   -0.783104
H       0.169698   -0.161348    0.916533
H      -1.960666   -2.887094   -3.386673
H      -3.125118   -4.729631   -2.074599
H      -1.729680   -4.606168   -0.965846
H      -4.287012   -3.369682   -0.552879
H      -3.860607   -1.381822   -1.829038
