20

C      -0.047469    1.590364   -0.160164
C      -0.021337    0.068012    0.037741
N       0.673785   -0.611379   -1.047466
C       1.964814   -0.991431   -0.773696
O       2.752103   -1.448313   -1.572247
C       2.193078   -0.708414    0.712694
C       0.784735   -0.442724    1.269597
C       0.736792    0.448674    2.500797
O       1.414733   -0.242225    3.539572
H       0.963566    2.008302   -0.191481
H      -0.538561    1.836997   -1.107182
H      -0.606228    2.086846    0.639578
H      -1.056082   -0.290395    0.098933
H       0.359668   -0.570114   -2.005092
H       2.710334   -1.537487    1.195497
H       2.843465    0.171046    0.798033
H       0.350774   -1.406605    1.558383
H       1.217123    1.417059    2.291714
H      -0.311210    0.652678    2.777117
H       1.446321    0.328498    4.312741
