14

C      -0.338974    1.150424   -0.071409
C       1.135587    1.048172    0.270193
C       0.349948   -0.178950   -0.037070
O       0.106266   -1.031109    1.076240
C      -0.913970   -1.859071    0.952588
N      -1.708000   -2.002344   -0.073822
O      -2.561642   -2.990244    0.327897
N      -2.222400   -3.391938    1.607564
N      -1.232639   -2.716303    1.988734
H      -1.019108    1.374423    0.742068
H      -0.636473    1.542149   -1.037032
H       1.872718    1.374457   -0.453904
H       1.413605    1.200217    1.306642
H       0.514236   -0.730274   -0.956745
