23

C      -0.130518    1.555676    0.103880
C      -0.027370    0.058094    0.035682
C      -1.246342   -0.881995    0.023825
C      -0.478924   -1.879019    0.948593
C       0.727920   -0.933148    0.939761
C       1.201736   -0.654251   -0.469184
C       1.256616   -1.666633   -1.595356
C       2.499604   -2.546827   -1.518974
O       2.474238   -3.438067   -2.624650
H       0.839907    2.012617    0.325653
H      -0.481174    1.975440   -0.847543
H      -0.835034    1.873000    0.881972
H      -2.109246   -0.438841    0.528029
H      -1.575272   -1.250728   -0.953260
H      -0.940934   -1.962869    1.934691
H      -0.312937   -2.890346    0.562662
H       1.358593   -0.724173    1.797344
H       2.063249    0.014380   -0.466490
H       0.377952   -2.318433   -1.593915
H       1.256695   -1.150746   -2.563709
H       3.404153   -1.916202   -1.537131
H       2.505758   -3.093892   -0.562499
H       3.252537   -4.000402   -2.575257
