19

C      -0.169982    1.593771   -0.135274
C      -0.042968    0.080168   -0.046573
C      -1.381312   -0.618669    0.219440
O      -1.433651   -0.749925    1.666013
C      -0.118435   -0.842118    2.238757
C       0.781847   -0.631243    1.057506
C       2.115434   -0.135097    0.457754
C       1.180235   -0.669646   -0.683319
O       0.894578   -1.830052    0.165106
H       0.789796    2.114688   -0.140266
H      -0.693427    1.869074   -1.057935
H      -0.762141    1.978524    0.701897
H      -2.245989   -0.012842   -0.062899
H      -1.448764   -1.602154   -0.251495
H       0.001296   -0.065519    3.004028
H       0.030323   -1.826269    2.698737
H       2.357233    0.926412    0.514501
H       2.975164   -0.774914    0.655274
H       1.429347   -0.856136   -1.729515
