21

C      -0.116883    1.510739    0.036044
C       0.050247   -0.004975    0.003417
C       1.045549   -0.595059   -1.032254
C       2.377947   -0.094267   -0.455828
O       2.182212   -0.167063    0.969584
C       0.834862   -0.622527    1.171751
C       0.808799   -2.126470    0.844269
O      -0.428864   -2.662745    1.288930
C       0.958284   -2.106894   -0.715195
H       0.822785    2.019620    0.266118
H      -0.483736    1.887915   -0.924617
H      -0.843413    1.800342    0.802308
H      -0.925947   -0.490763   -0.086916
H       0.881773   -0.332247   -2.078636
H       3.227022   -0.726174   -0.744725
H       2.607336    0.939544   -0.743356
H       0.529093   -0.374702    2.188377
H       1.653384   -2.627455    1.333916
H      -0.466607   -3.587575    1.026231
H       0.067006   -2.553463   -1.166885
H       1.834527   -2.659687   -1.067045
