25

C       0.702848    1.835355   -0.419663
C       0.258183    0.393970   -0.163359
C       0.681223   -0.581416   -1.263655
C       0.344212   -2.031522   -0.906651
O       0.015966   -0.176719   -2.459404
C       0.623328   -0.597632   -3.660036
C      -0.236712   -0.142721   -4.842989
C      -0.403670    1.372046   -4.906756
O       0.301222   -0.676039   -6.048789
H       1.795505    1.910504   -0.462697
H       0.304072    2.198521   -1.370018
H       0.355645    2.503125    0.374594
H       0.667960    0.037144    0.789098
H      -0.834353    0.347961   -0.072500
H       1.770587   -0.490577   -1.417704
H       0.624622   -2.720777   -1.708171
H       0.878750   -2.339516   -0.002286
H      -0.730465   -2.136572   -0.726631
H       1.637765   -0.165969   -3.752571
H       0.726740   -1.690964   -3.710493
H      -1.222218   -0.611154   -4.740179
H       0.571885    1.863905   -5.018603
H      -1.028205    1.650753   -5.759901
H      -0.863709    1.746140   -3.989040
H       1.111694   -0.193106   -6.245091
