19

C      -0.152112    1.496323   -0.425594
C      -0.378732   -0.011819   -0.441327
C      -1.485325   -0.477639    0.484203
O      -2.141356    0.282026    1.159587
C      -1.783968   -1.978557    0.505030
C      -3.152140   -2.236584   -0.167220
O      -3.144682   -1.799155   -1.526165
C      -3.548957   -3.639501   -0.053313
C      -3.835432   -4.805618    0.005842
H       0.646156    1.776491   -1.118430
H      -1.063110    2.027522   -0.712088
H       0.122174    1.839683    0.575425
H      -0.651648   -0.371768   -1.443752
H       0.536308   -0.562030   -0.178927
H      -1.010615   -2.560142   -0.006545
H      -1.834046   -2.305507    1.548133
H      -3.888236   -1.600662    0.337380
H      -2.765384   -2.507986   -2.057353
H      -4.111523   -5.829571    0.067242
