18

N       0.035895    1.335760   -0.562190
C       0.022537    0.074691   -0.000826
N       1.007984   -0.691032    0.260663
C       2.342639   -0.209229    0.006651
C       3.504046   -1.173483    0.348577
C       4.228765   -0.706671   -0.942478
C       2.870422   -0.171756   -1.467829
C      -1.315662   -0.423486    0.267522
N      -2.392710   -0.784266    0.480952
H       0.915033    1.827376   -0.577567
H      -0.782891    1.912102   -0.450316
H       2.510413    0.769197    0.488285
H       4.011454   -1.039299    1.306426
H       3.156855   -2.206899    0.270659
H       4.936899    0.103559   -0.747002
H       4.731736   -1.467683   -1.541841
H       2.345051   -0.917192   -2.070824
H       2.857708    0.783842   -1.998733
