19

C      -0.079500    1.544633   -0.026951
C      -0.020426    0.050949    0.031251
C      -0.174661   -1.043971   -0.986401
O       0.968565   -1.778700   -0.552660
C       1.067947   -0.885061    0.611514
C       0.446900   -1.601018    1.808125
C      -1.014096   -1.856726    1.342258
C      -1.185934   -0.915350    0.147391
O      -2.442070   -0.401010   -0.168896
H       0.765580    1.964225   -0.583435
H      -1.004971    1.861642   -0.516030
H      -0.071240    1.982932    0.978225
H      -0.427157   -1.037094   -2.042099
H       2.085087   -0.507701    0.737368
H       0.986372   -2.519912    2.052639
H       0.475419   -0.945937    2.686893
H      -1.168486   -2.903993    1.063273
H      -1.747322   -1.604383    2.113320
H      -2.936155   -1.079845   -0.641297
