25

C       0.287912    1.601634    0.073939
C       0.075590    0.083013   -0.003202
C       0.662797   -0.479050   -1.304315
C       0.660671   -0.653124    1.219336
C      -0.010487   -0.298052    2.532281
C       0.574233   -0.705504    3.878515
C       1.867361   -1.483318    4.003351
C       0.571494    0.742327    3.471355
O       1.817398    1.312708    3.184041
H       1.358728    1.843810    0.079997
H      -0.152045    2.107778   -0.791676
H      -0.170770    2.029491    0.971137
H      -1.008547   -0.102059   -0.015624
H       1.748068   -0.325045   -1.342688
H       0.477677   -1.554584   -1.393719
H       0.228047    0.010873   -2.182007
H       0.568832   -1.734174    1.049720
H       1.734380   -0.442159    1.279372
H      -1.098061   -0.316288    2.482581
H      -0.165961   -0.964769    4.631515
H       2.646956   -1.075990    3.358269
H       2.239937   -1.439327    5.032335
H       1.721583   -2.538676    3.748243
H      -0.119461    1.413687    3.982011
H       1.697535    1.929768    2.454223
