14

O       0.001018   -0.034553   -0.099444
C      -0.013926    1.161309    0.032948
N      -1.139095    1.984578    0.150170
C      -0.793714    3.360060    0.060681
C       0.704505    3.381028    0.040449
N       1.090512    2.015778    0.120036
C      -0.068634    3.881265   -1.199649
C      -0.074696    3.137401   -2.419342
N      -0.079338    2.524716   -3.401170
H      -2.019503    1.621227   -0.177899
H      -1.385233    4.067343    0.629510
H       1.291153    4.104784    0.593378
H       1.971599    1.677068   -0.231715
H      -0.085296    4.960163   -1.315205
