21

C      -0.143515    1.592437   -0.105983
C       0.022975    0.070321   -0.010689
C       0.807452   -0.505122   -1.195014
C       2.289156   -0.180980   -1.263009
O       2.760642    0.297599   -0.000895
C       2.154510   -0.881940    0.637869
C       1.847592   -1.508869   -0.737828
C       0.815431   -0.464096    1.243114
C       0.949801    0.488484    2.431212
H       0.827210    2.092994   -0.125890
H      -0.679261    1.854336   -1.025009
H      -0.721227    1.991465    0.733686
H      -0.977393   -0.378071   -0.005262
H       0.309298   -0.668497   -2.145340
H       2.828787    0.117951   -2.154035
H       2.862418   -1.373985    1.308512
H       1.992939   -2.524992   -1.076003
H       0.321030   -1.383845    1.585852
H       1.516996    1.381613    2.157851
H      -0.028830    0.804491    2.805624
H       1.474801   -0.002506    3.257853
