18

O      -0.195878   -0.063520    0.389937
C      -0.113303    1.115720    0.120106
N       1.038637    1.785083   -0.160552
C       2.341986    1.165754   -0.174456
C       3.306053    1.487267   -1.335966
C       3.732508    2.868266   -0.712639
C       5.231848    2.529646   -0.811327
C       4.557674    1.195079   -0.437634
C       3.519444    1.895269    0.506156
H      -0.994988    1.786592    0.074034
H       0.969391    2.768947   -0.369718
H       2.204142    0.112822    0.074676
H       3.206717    1.260670   -2.398643
H       3.243156    3.831718   -0.869353
H       5.686449    2.591475   -1.805078
H       5.888693    2.978134   -0.059370
H       5.003670    0.213820   -0.271956
H       3.665296    2.137455    1.559995
