20

C       0.029419    1.482618   -0.351958
C       1.529559    1.499217    0.059534
C       1.269951    0.210971    0.892029
C      -0.028797   -0.014697    0.065986
C       0.133590   -0.992196   -1.095200
C       1.291821   -0.782131   -2.035418
C       2.249528    0.148261   -2.039383
C       2.497001    1.303809   -1.104981
H      -0.579327    2.112026    0.302992
H      -0.209874    1.724504   -1.391803
H       1.848520    2.373409    0.635089
H       2.031837   -0.573433    0.856154
H       1.051970    0.439813    1.938834
H      -0.909387   -0.305846    0.646507
H       0.205671   -2.014026   -0.691290
H      -0.791951   -0.991302   -1.691731
H       1.332860   -1.522925   -2.833560
H       2.985420    0.082501   -2.840399
H       2.520339    2.226512   -1.705440
H       3.518028    1.203859   -0.704995
