21

C       0.488810    0.945232   -0.472953
O       0.001636   -0.298892   -0.011127
C       0.508004   -0.665760    1.238763
C       0.109068   -2.126907    1.629517
C      -0.983842   -2.826314    0.833820
C       1.592513   -2.566364    1.486793
C       2.132885   -2.760714    0.052059
O       2.549442   -1.375515   -0.040736
C       2.023674   -1.091722    1.261101
H       1.571661    0.912987   -0.643303
H      -0.015149    1.155580   -1.419454
H       0.258849    1.754314    0.238441
H       0.256358    0.091839    1.998691
H      -0.151688   -2.143204    2.693389
H      -0.809493   -2.755047   -0.241858
H      -1.041983   -3.885445    1.108112
H      -1.959853   -2.373316    1.034323
H       2.008389   -3.218072    2.254571
H       2.994264   -3.434559   -0.025708
H       1.400702   -3.024306   -0.718921
H       2.715149   -0.520544    1.886456
