15

N       0.062124    1.423342    0.144726
C       0.025273    0.022480    0.021121
C      -1.053154   -0.810187   -0.007541
O      -0.644464   -2.114964   -0.035775
C       0.710219   -2.102700   -0.037081
C       1.186247   -0.830559    0.001558
C       2.613648   -0.395022    0.044957
O       3.439680   -1.545914   -0.016375
H       0.715185    1.850610   -0.502152
H      -0.847624    1.845475    0.005630
H      -2.117190   -0.643889    0.002130
H       1.201878   -3.059360   -0.063970
H       2.827925    0.288889   -0.796894
H       2.795346    0.183368    0.966585
H       4.353204   -1.263747    0.081200
