21

C      -0.152999    1.519544    0.015029
C       0.060343    0.006856    0.041711
C       1.000321   -0.549026   -1.082107
C       2.039843   -1.301520   -0.209094
C       1.110887   -2.002464    0.840453
C       0.824796   -0.537982    1.271556
C       2.311245   -0.250679    0.918747
C       3.105510   -1.998026   -0.883256
C       3.995577   -2.579611   -1.446714
H       0.792744    2.066763    0.088574
H      -0.639209    1.829292   -0.916305
H      -0.790547    1.842579    0.845454
H      -0.920278   -0.479701   -0.016545
H       0.491237   -1.222017   -1.776698
H       1.471461    0.246881   -1.666473
H       0.280957   -2.603132    0.456529
H       1.682080   -2.567922    1.579229
H       0.416146   -0.301913    2.254428
H       3.005354   -0.630364    1.670776
H       2.603349    0.756454    0.610895
H       4.781898   -3.092598   -1.942197
