18

C       0.279003    1.353387    0.204927
N       0.112477   -0.080805    0.077801
C      -0.015587   -0.757588   -1.111309
C      -0.210102   -2.090344   -0.837577
C      -0.202405   -2.229008    0.575714
C      -0.004106   -0.977970    1.118490
C       0.077129   -0.564130    2.561641
C       1.398213   -0.090340    2.984094
C       2.481686    0.307034    3.320969
H       1.102911    1.586435    0.884126
H       0.505214    1.770597   -0.777780
H      -0.632503    1.832972    0.581317
H       0.043298   -0.225666   -2.047978
H      -0.336963   -2.875070   -1.567176
H      -0.319143   -3.141792    1.140815
H      -0.666602    0.212860    2.790954
H      -0.204171   -1.430730    3.170005
H       3.442196    0.644002    3.623151
