18

C       0.620392   -0.935055    0.674215
C       0.258683    0.143748    0.284844
C      -0.213356    1.448401   -0.186183
C      -1.080752    2.189502    0.905018
N      -0.364048    3.279843    1.575899
C       0.122086    4.230411    0.504913
C       1.298420    3.267419    0.260796
C       1.080489    2.855438    1.733070
O       0.895002    2.243886   -0.640932
H       0.947280   -1.888010    1.010594
H      -0.833515    1.278827   -1.073629
H      -1.974859    2.612627    0.437361
H      -1.406245    1.458700    1.650285
H      -0.568427    4.399906   -0.325731
H       0.409249    5.183607    0.958500
H       2.267174    3.625874   -0.095422
H       1.585371    3.520459    2.438823
H       1.244187    1.814746    2.017660
