20

C       0.041080    1.785644    0.105178
C      -0.143815    0.282621    0.189917
C      -1.432719   -0.234479   -0.468144
C      -1.274845   -0.277987   -1.976756
O      -0.781728   -1.216433   -2.552018
N       1.068306   -0.529717   -0.011817
C       0.405357   -0.541473    1.308478
C       1.260204   -0.029243    2.446316
O       2.341696   -0.911947    2.691467
H       1.019546    2.085885    0.481155
H      -0.025067    2.124394   -0.934791
H      -0.732224    2.309282    0.678065
H      -1.635965   -1.255570   -0.132744
H      -2.277704    0.405478   -0.190789
H      -1.609504    0.621166   -2.539557
H       0.848762   -1.364438   -0.551213
H      -0.163707   -1.435049    1.561624
H       1.618570    0.987435    2.235059
H       0.675951    0.009588    3.371876
H       2.799639   -1.005208    1.847107
