18

O       0.143393    1.134123   -0.071268
C       0.068073   -0.283873   -0.042205
C      -1.410709   -0.646252    0.034602
C      -1.667927   -2.168146    0.040567
N      -1.128086   -2.830898    1.232370
C       0.042690   -3.520263    1.213374
O       0.797514   -3.580870    0.264759
C      -3.095836   -2.461466   -0.078638
C      -4.275834   -2.676715   -0.148777
H       1.071665    1.381922   -0.109241
H       0.515065   -0.732200   -0.942593
H       0.606998   -0.694749    0.823487
H      -1.852528   -0.195805    0.930160
H      -1.925901   -0.211374   -0.828035
H      -1.130415   -2.616086   -0.803717
H      -1.714595   -2.882925    2.050506
H       0.242259   -4.021985    2.180199
H      -5.315560   -2.877935   -0.230677
