20

C       1.010015   -0.569483   -1.173591
C       0.151793   -0.077247    0.003980
C      -0.055139    1.424589   -0.157872
O       0.589120    2.268264    0.408891
N      -1.168087   -0.703416   -0.057738
C      -2.005700   -0.777766    1.215107
C      -2.823068   -1.872615    0.484263
C      -1.319307   -2.184673    0.268815
C      -1.095606   -1.906100    1.782286
H       1.973303   -0.052733   -1.187402
H       1.198813   -1.643329   -1.083999
H       0.495981   -0.393024   -2.123377
H       0.711371   -0.222278    0.938941
H      -0.860891    1.681945   -0.882254
H      -2.371549    0.121520    1.713456
H      -3.385028   -2.568790    1.108367
H      -3.367097   -1.542556   -0.400625
H      -0.877392   -2.960388   -0.358047
H      -0.090788   -1.633925    2.104128
H      -1.552614   -2.603710    2.489157
