19

C      -0.074179    1.476648   -0.035060
C      -0.049528    0.021836   -0.051068
C      -0.036482   -1.181118   -0.061318
C       0.008167   -2.635404   -0.077784
O      -1.295832   -3.166647    0.101520
C      -1.308377   -4.575980    0.087584
C      -2.747359   -5.036096    0.317779
C      -2.914825   -6.519361    0.079747
O      -3.374513   -7.298151    0.873552
H       0.740665    1.881066    0.575266
H       0.026290    1.891012   -1.044073
H      -1.016190    1.846665    0.384085
H       0.432746   -2.989710   -1.033303
H       0.678834   -3.002285    0.718306
H      -0.933724   -4.957164   -0.879287
H      -0.646418   -4.980506    0.871516
H      -3.086858   -4.788369    1.325840
H      -3.383428   -4.505627   -0.404502
H      -2.576285   -6.863356   -0.926562
