18

C       0.089190    1.524355    0.044112
C       0.023008    0.020304    0.008290
C       0.690770   -0.858785   -1.104812
C       0.543059   -1.900798    0.071726
N       0.804796   -0.779264    1.056014
C       1.394848   -3.123903    0.109637
O       2.439986   -3.195640    0.706481
C      -0.990770   -1.985486    0.165888
C      -1.334538   -0.698653    0.139044
H       1.116975    1.879949   -0.079285
H      -0.516642    1.959823   -0.757474
H      -0.287372    1.900418    1.000757
H       0.147680   -1.043856   -2.035806
H       1.734816   -0.588082   -1.296702
H       1.796331   -0.535519    0.965817
H       1.011922   -3.978210   -0.495060
H      -1.584035   -2.882998    0.260006
H      -2.304070   -0.226114    0.206148
