18

C      -0.126924    1.499549    0.133290
C       0.022813   -0.005314    0.048201
C      -1.299672   -0.768668   -0.175703
N      -1.118376   -1.988656    0.587868
C      -0.020379   -2.044769    1.404164
O       0.258659   -2.947906    2.162261
C       0.790321   -0.776717    1.148056
C       1.876410   -0.960303    0.069570
O       1.016410   -0.390751   -0.941539
H       0.844780    1.974212    0.293957
H      -0.545043    1.892218   -0.799942
H      -0.793943    1.782197    0.954259
H      -2.165125   -0.193231    0.179712
H      -1.428643   -0.964535   -1.245959
H      -1.791682   -2.738330    0.602272
H       1.072467   -0.278198    2.074514
H       2.777350   -0.354586    0.226463
H       2.168768   -1.990405   -0.159123
