23

C       0.313910    1.401189   -0.641099
C       0.190538   -0.004376   -0.280804
C       0.097458   -1.168944    0.017474
C      -0.033548   -2.563847    0.384975
C      -0.174276   -2.954326    1.889366
C      -1.193010   -4.046447    1.479109
C      -1.386359   -3.337123    0.101155
C      -2.605397   -2.414388    0.099014
C      -1.374479   -4.229462   -1.134669
H       1.354790    1.738711   -0.580014
H      -0.030484    1.582701   -1.665571
H      -0.279227    2.039502    0.023499
H       0.788563   -3.138628   -0.058221
H       0.738259   -3.272890    2.397399
H      -0.632432   -2.150008    2.468726
H      -0.722628   -5.028332    1.368806
H      -2.084868   -4.158094    2.101227
H      -2.633779   -1.773039    0.985205
H      -2.601200   -1.760449   -0.778660
H      -3.527993   -3.005762    0.081831
H      -2.278512   -4.848087   -1.182703
H      -1.333344   -3.630482   -2.051923
H      -0.509760   -4.901875   -1.132776
