16

C      -0.020530    1.500591    0.126794
C       0.016662    0.017682   -0.012475
C       0.051933   -0.770465   -1.149995
O       0.058475   -0.246058   -2.412360
C       0.077783   -2.129273   -0.762634
C       0.057819   -2.156340    0.627414
N       0.020807   -0.847214    1.055614
C       0.069769   -3.235747    1.528042
C       0.079505   -4.150733    2.314300
H       0.842861    1.888543    0.682101
H      -0.008002    1.953296   -0.866829
H      -0.925356    1.848443    0.641300
H       0.085710   -0.969619   -3.044311
H       0.107571   -2.996401   -1.404426
H       0.000209   -0.574676    2.023009
H       0.088372   -4.962861    2.997577
