19

C      -0.231345    1.605329    0.010476
C       0.055563    0.108674    0.023114
C       1.154004   -0.523255   -0.863013
O       1.342077   -0.533243   -2.047567
C       1.785085   -1.255292    0.285795
C       2.141248   -0.244501    1.363362
O       2.614613    1.038031    1.070664
C       0.707985   -0.596888    1.237070
C      -0.082370   -1.239332    2.341015
H       0.659937    2.178732    0.265508
H      -0.572102    1.908126   -0.984836
H      -1.023706    1.857602    0.723439
H      -0.860726   -0.443806   -0.232833
H       2.221436   -2.247541    0.267805
H       2.633159   -0.709513    2.220639
H       3.467585    0.951090    0.631247
H      -0.573152   -0.478853    2.959692
H      -0.862909   -1.894754    1.939585
H       0.557277   -1.836779    2.998170
