19

C      -0.084716    0.895970    0.447701
O      -0.228222   -0.169462   -0.481051
C      -1.408526   -0.858339   -0.339219
C      -1.415800   -2.273750   -0.774574
C      -1.476483   -1.987279    0.724439
O      -0.347391   -2.144369    1.514909
C       0.064819   -3.491022    1.692281
C      -2.779573   -2.129169    1.412587
O      -3.853508   -2.068841    0.857325
H       0.855353    1.397132    0.208820
H      -0.908918    1.617885    0.356106
H      -0.047713    0.518990    1.476408
H      -2.325370   -0.275541   -0.438150
H      -2.317247   -2.674005   -1.224192
H      -0.471130   -2.659144   -1.140827
H       0.941423   -3.468225    2.342996
H      -0.718197   -4.098168    2.167398
H       0.337329   -3.959215    0.737323
H      -2.689761   -2.255817    2.514754
