17

C       0.482129    1.243722    0.302588
C      -0.129577   -0.064600   -0.222369
C       0.547650   -0.554113   -1.459837
N      -0.076683   -0.687813   -2.599311
O       0.926364   -1.162755   -3.471599
C       2.036972   -1.254829   -2.743885
C       3.318651   -1.704723   -3.372623
O       4.305420   -1.946767   -2.404139
N       1.886470   -0.899544   -1.505533
H       1.548800    1.119006    0.506531
H       0.366649    2.050657   -0.427005
H      -0.012243    1.548506    1.228902
H      -0.043000   -0.843438    0.544209
H      -1.192896    0.062538   -0.441780
H       3.138866   -2.622087   -3.947369
H       3.634396   -0.935038   -4.097062
H       4.037888   -1.480573   -1.601392
