23

C      -0.238366    1.378120   -0.111795
C      -0.317423   -0.122793   -0.326083
O      -1.372458   -0.638087    0.486583
C      -1.526679   -2.023214    0.355068
C      -2.842676   -2.580312    0.835572
C      -2.551368   -2.486491   -0.653290
O      -3.194604   -1.475184   -1.380634
C      -2.352098   -3.730551   -1.483707
C      -3.672664   -4.380093   -1.913778
H       0.576804    1.802978   -0.704860
H      -1.171476    1.864036   -0.412184
H      -0.057905    1.606428    0.942350
H      -0.506593   -0.363671   -1.381961
H       0.630400   -0.605831   -0.041842
H      -0.612962   -2.597736    0.513055
H      -2.839705   -3.549053    1.324150
H      -3.548686   -1.864305    1.243233
H      -2.998946   -0.647738   -0.920754
H      -1.764359   -3.463308   -2.370814
H      -1.751263   -4.444467   -0.907591
H      -3.491899   -5.266399   -2.529550
H      -4.261882   -4.686930   -1.043261
H      -4.274958   -3.676242   -2.494033
