21

C       0.173225    1.520298    0.548639
C      -0.069362    0.115525    0.049353
C      -1.259828   -0.485630    0.205454
C      -1.591504   -1.854064   -0.334432
C      -0.741225   -2.973415    0.249072
C      -0.097666   -3.972906   -0.681322
C       0.746057   -2.926006    0.025055
C       1.402903   -1.805796   -0.695577
C       1.065396   -0.507603   -0.649893
H       0.989515    1.549301    1.280894
H       0.468595    2.184561   -0.273829
H      -0.720476    1.939135    1.018256
H      -2.050268    0.057247    0.718893
H      -2.652147   -2.077033   -0.178567
H      -1.437061   -1.842872   -1.422427
H      -1.068985   -3.340457    1.217267
H       0.005638   -5.003535   -0.360623
H      -0.275429   -3.848177   -1.744706
H       1.362250   -3.330920    0.827238
H       2.302909   -2.072346   -1.249167
H       1.722426    0.193028   -1.165879
