21

O       0.108778    1.284342   -0.393266
C       0.088172   -0.056069    0.038950
C      -0.022219   -0.315943    1.558400
O      -1.297560   -0.965642    1.397692
C      -1.320013   -0.697743   -0.030462
C      -2.472677    0.185221   -0.444857
C      -2.699576    0.437273   -1.962323
C      -4.226835    0.298610   -1.717788
C      -3.908782   -0.408641   -0.371710
H       1.011086    1.611982   -0.331389
H       0.867088   -0.646827   -0.458296
H       0.728586   -0.983257    1.999929
H      -0.092241    0.603315    2.154694
H      -1.350820   -1.641965   -0.593181
H      -2.417506    1.133849    0.094896
H      -2.320554    1.373963   -2.374788
H      -2.312669   -0.390061   -2.567762
H      -4.701303    1.271860   -1.562039
H      -4.811637   -0.255051   -2.456309
H      -3.895374   -1.498402   -0.479840
H      -4.515789   -0.156258    0.500045
