13

N      -0.179651    1.426062    0.045600
C      -0.068289    0.001845    0.038571
C       1.048126   -0.593353   -0.678199
N       1.957602   -1.022455   -1.250408
C      -0.527041   -0.815545    1.229338
O      -1.547668   -0.104520    1.948680
C      -2.384856   -0.161128    0.836522
O      -3.509428    0.191993    0.751733
C      -1.348052   -0.864082   -0.024853
H       0.632038    1.860775    0.471670
H      -0.284217    1.791167   -0.894970
H       0.055631   -1.555801    1.757985
H      -1.509371   -1.624061   -0.774595
