25

C       0.005268    1.234019    0.663636
C       0.100190   -0.223680    0.172490
C       0.939062   -1.044707    1.167163
C      -1.323300   -0.812154    0.110580
C       0.689256   -0.297777   -1.264719
C       2.169689   -0.035191   -1.460739
O       2.518620    1.259900   -1.029685
C       3.176160   -1.148020   -1.315976
C       2.845231   -0.587308   -2.690192
H       0.990750    1.695560    0.734332
H      -0.599042    1.839057   -0.021802
H      -0.472519    1.272781    1.649341
H       0.473092   -1.032844    2.158858
H       1.023422   -2.091926    0.855095
H       1.949503   -0.639326    1.267435
H      -1.944735   -0.271445   -0.612283
H      -1.308005   -1.867535   -0.184822
H      -1.815619   -0.745617    1.086939
H       0.490496   -1.298707   -1.666686
H       0.133800    0.403854   -1.901438
H       3.461376    1.389337   -1.170874
H       4.144406   -0.901340   -0.889745
H       2.830424   -2.144989   -1.066381
H       2.272387   -1.200304   -3.378233
H       3.591148    0.037127   -3.172962
