20

N       0.048496   -1.106060   -0.638122
C       0.035726   -0.025207   -0.229584
C       0.036437    1.343695    0.290804
C       1.398841    2.008465    0.160123
C       1.803478    2.696029   -1.120259
C       1.541698    3.515719    0.121581
C       0.374558    4.449839    0.205949
C       0.062129    5.164054    1.500621
C       0.611934    5.935924    0.327705
H      -0.729631    1.912287   -0.245636
H      -0.278836    1.312322    1.340776
H       2.184521    1.472597    0.684209
H       2.820621    2.577768   -1.475888
H       1.062344    2.749306   -1.912338
H       2.425098    3.891240    0.633365
H      -0.483836    4.169247   -0.398165
H      -0.977172    5.309406    1.773816
H       0.721589    4.987375    2.344052
H       1.640321    6.277922    0.382050
H      -0.050661    6.608538   -0.205276
