17

C       0.276258    1.413324    0.005245
C      -0.079309   -0.070878    0.003715
C      -1.591584   -0.304619    0.016218
O      -2.403911    0.584350    0.026894
N      -1.913921   -1.665570    0.013750
C      -3.173055   -2.275087    0.022325
N      -4.268010   -1.622204    0.038766
C      -3.080518   -3.715725    0.010846
C      -3.026582   -4.917646    0.001690
H       1.361421    1.547329   -0.003874
H      -0.145075    1.914264   -0.869376
H      -0.129613    1.908741    0.890258
H       0.341711   -0.572813   -0.877857
H       0.356844   -0.578259    0.874743
H      -1.137392   -2.307997    0.002882
H      -5.050280   -2.275185    0.041903
H      -2.994423   -5.979933   -0.006239
