20

C      -0.268468    1.511919   -0.111678
C       0.017915    0.000362    0.020409
C       0.846106   -0.261354    1.289443
C      -1.318882   -0.767909    0.103607
C       0.774115   -0.463361   -1.202031
C       2.015480   -1.045071   -1.327626
N       2.158940   -1.238182   -2.661358
N       1.081348   -0.808345   -3.339800
N       0.246537   -0.340225   -2.459516
H       0.662740    2.086820   -0.146531
H      -0.827048    1.718722   -1.027817
H      -0.855803    1.865695    0.742520
H       0.297435    0.074941    2.174757
H       1.059118   -1.328367    1.416315
H       1.799139    0.278199    1.264752
H      -1.904511   -0.620110   -0.807035
H      -1.147739   -1.842585    0.224667
H      -1.908143   -0.418124    0.958119
H       2.773643   -1.325621   -0.617494
H       2.931953   -1.641395   -3.165906
