17

C      -0.274961    1.099001   -0.536865
O       0.605702    1.686463    0.418748
C       0.601443    0.256927    0.287972
C       0.075493   -0.510838    1.466886
C      -0.313302   -1.987719    1.326423
C       0.995622   -2.760100    1.572607
O       2.045886   -1.808086    1.739852
C       1.095620   -1.031216    2.526222
C       0.190727   -2.300726    2.735466
H      -1.336297    1.166559   -0.297916
H      -0.024842    1.279452   -1.581622
H       1.502079   -0.153415   -0.165777
H      -0.722656    0.050757    1.961543
H      -1.158724   -2.418666    0.805413
H       1.226619   -3.739187    1.175273
H       1.565197   -0.388654    3.266999
H      -0.257710   -2.787957    3.589084
