23

C      -0.026235    1.530920    0.030779
C       0.017666    0.020368    0.036365
C       0.971617   -0.794024   -0.892065
C       0.718247   -1.931533    0.142660
C       1.623633   -3.132737    0.283829
C       0.646102   -0.794287    1.208124
C      -0.778677   -2.208734   -0.095984
O      -1.295101   -2.959168    0.993602
C      -1.307588   -0.741263   -0.180977
H       0.970523    1.959493    0.180950
H      -0.414173    1.913850   -0.920653
H      -0.676017    1.910404    0.828232
H       0.667608   -0.958027   -1.932378
H       2.002946   -0.431709   -0.857694
H       2.656985   -2.832470    0.486161
H       1.285878   -3.774526    1.103257
H       1.624129   -3.735524   -0.632556
H       1.638994   -0.426386    1.481785
H       0.043068   -0.972523    2.101724
H      -0.930366   -2.757815   -1.037532
H      -2.236100   -3.092935    0.846340
H      -2.038772   -0.545346    0.610667
H      -1.770182   -0.506171   -1.145733
