16

C       0.058420    1.603751    0.007175
C       0.072813    0.084273   -0.001573
C       0.770193   -0.676747   -1.138999
C       2.222901   -0.806988   -0.686644
O       2.373996   -0.124363    0.549900
C       1.076114   -0.661344    0.926697
C       1.206418   -1.792996   -0.172638
C       1.081464   -3.198332   -0.197793
N       0.972770   -4.351755   -0.208509
H       1.074184    1.998221   -0.068579
H      -0.528995    1.991512   -0.831408
H      -0.390784    1.984010    0.930919
H      -0.926341   -0.336608    0.147729
H       0.464214   -0.800482   -2.169723
H       3.080947   -0.943441   -1.330188
H       0.946397   -0.780215    1.999304
