19

O      -0.088830    1.357850    0.078115
C      -0.028044   -0.045120    0.065165
C      -0.191952   -0.676468    1.426132
C       1.150265   -0.725400    0.720943
O       1.690543   -1.896245    0.183651
C       0.746846   -2.779933   -0.423400
C      -0.096438   -2.109910   -1.496078
C      -1.557199   -1.807234   -1.244126
C      -0.547034   -0.694325   -1.192580
H       0.550325    1.687092   -0.564000
H      -0.271322    0.018006    2.254385
H      -0.792194   -1.571411    1.533063
H       1.944693   -0.102248    1.117284
H       1.353093   -3.579109   -0.855530
H       0.114052   -3.236094    0.351455
H       0.199588   -2.318706   -2.518309
H      -2.236681   -1.831727   -2.088658
H      -1.994809   -2.155685   -0.314135
H      -0.554627   -0.002092   -2.029235
