17

N      -0.144136    1.224420    0.056580
C      -0.035950   -0.030084   -0.015510
N       1.024134   -0.958704   -0.119984
C       0.167626   -2.102587    0.122403
C       0.194874   -3.546534   -0.358996
C      -0.750302   -3.894617    0.846583
C      -0.492203   -2.486908    1.473954
O      -1.557333   -1.528740    1.317058
C      -1.068153   -1.168114    0.005053
H       0.767444    1.686098    0.082277
H       1.949662   -0.823846    0.268457
H      -0.165539   -3.747629   -1.370861
H       1.181377   -4.006224   -0.243507
H      -1.797031   -4.031898    0.570329
H      -0.426843   -4.738124    1.458651
H      -0.024862   -2.445725    2.460111
H      -1.830077   -1.198092   -0.775024
