23

C      -0.257977    1.544988    0.002781
C       0.033782    0.045043   -0.005349
C       0.765385   -0.477873   -1.285578
C       1.940093   -1.311937   -0.715144
O       2.441551   -2.310360   -1.574656
C       3.002675   -0.336704   -0.152061
C       2.314671    0.227085    1.129131
C       0.942776   -0.491561    1.136752
C       1.324364   -1.876859    0.578868
H       0.646303    2.140689   -0.160171
H      -0.965314    1.806382   -0.791637
H      -0.698538    1.859988    0.955598
H      -0.925973   -0.478111    0.082381
H       0.120329   -1.119012   -1.893474
H       1.118138    0.340144   -1.924971
H       2.820609   -1.876570   -2.346162
H       3.914427   -0.892572    0.085830
H       3.267497    0.443682   -0.873977
H       2.883195   -0.037504    2.025605
H       2.223757    1.315688    1.123204
H       0.451572   -0.480784    2.112414
H       0.465891   -2.527401    0.387573
H       2.053996   -2.417157    1.189432
