20

C       0.130082    1.610962   -0.084184
C      -0.055589    0.106023    0.057154
O       0.313430   -0.456659   -1.211462
C       0.585774   -1.848354   -1.245764
C      -0.405061   -2.707448   -0.480286
N       0.213486   -3.802330    0.295112
C      -0.385884   -2.652906    1.006675
C       0.549184   -1.706326    1.681462
C       0.716329   -0.459986    1.239309
H       1.188004    1.852074   -0.228627
H      -0.427372    1.980468   -0.948354
H      -0.227783    2.127609    0.811867
H      -1.123671   -0.101836    0.222518
H       0.586672   -2.113909   -2.308141
H       1.583368   -2.067102   -0.846055
H      -1.361307   -2.898329   -0.962055
H      -0.421834   -4.595203    0.340288
H      -1.324620   -2.844219    1.526768
H       1.108055   -2.075373    2.538386
H       1.427820    0.201209    1.728645
