15

N      -0.083433    1.317657    0.008210
C       0.055549   -0.029194    0.002185
O       1.124599   -0.615965   -0.008459
C      -1.258128   -0.777159    0.010131
N      -2.388387   -0.058793    0.020992
C      -3.545132   -0.721850    0.027892
C      -3.628913   -2.112706    0.024362
C      -2.448462   -2.849923    0.013064
C      -1.236661   -2.170240    0.005767
H       0.738522    1.895929    0.002012
H      -1.008713    1.714998    0.015437
H      -4.447542   -0.115434    0.036641
H      -4.597673   -2.599386    0.030361
H      -2.473315   -3.934619    0.009991
H      -0.278564   -2.674101   -0.003167
