11

O      -0.040982   -0.001909    0.340467
C       0.036798    1.147330    0.041080
O      -1.151789    1.822037   -0.348432
C      -1.140318    3.107780   -0.696494
N      -0.119544    3.888351   -0.732245
C       1.074540    3.321425   -0.371113
C       1.209409    2.016449    0.007529
C       2.470368    1.466706    0.375563
N       3.506435    1.043785    0.670126
H      -2.131249    3.462256   -0.964611
H       1.939849    3.975905   -0.399452
