19

C       0.004925    1.496629   -0.452639
N      -0.144340    0.056755   -0.539801
C       0.885597   -0.770060   -0.865524
O       2.016647   -0.382108   -1.097991
C       0.537889   -2.270541   -0.880205
N       0.983424   -2.897070   -2.106393
C       2.218692   -3.140316   -2.190881
O       2.725724   -3.664936   -3.320055
C       4.131657   -3.885387   -3.313028
H       1.061115    1.722233   -0.603145
H      -0.581069    2.008037   -1.224688
H      -0.307991    1.868166    0.529117
H      -1.061079   -0.342225   -0.427461
H       1.016130   -2.693357    0.018391
H      -0.540511   -2.427276   -0.774033
H       2.954918   -2.958824   -1.397140
H       4.424010   -4.592996   -2.527546
H       4.380427   -4.310466   -4.286076
H       4.681442   -2.946683   -3.178161
