13

O      -0.135311    1.387511   -0.096814
C      -0.016431   -0.018818    0.041204
C      -1.400401   -0.581561    0.047458
N      -1.741660   -1.861123    0.084055
C      -3.101772   -1.795520    0.079741
O      -3.872213   -2.891106    0.110866
N      -3.628346   -0.585093    0.042013
N      -2.499428    0.183541    0.023920
H       0.739433    1.778172   -0.025463
H       0.551669   -0.470481   -0.785393
H       0.491183   -0.298997    0.976440
H      -3.272747   -3.646288    0.132621
H      -2.550660    1.187540   -0.014783
