18

C      -0.044041    1.564322    0.002906
N       1.464097    1.263840   -0.002377
C       1.195076    0.042341    0.905637
C       1.883260   -0.967930   -0.015254
C       1.170686   -2.330422   -0.012535
O      -0.170613   -2.268583   -0.501115
C      -0.963944   -1.167044   -0.048458
C      -0.058976    0.036366   -0.012589
C       1.196239    0.053348   -0.933616
H      -0.380951    2.077955    0.909472
H      -0.387017    2.096030   -0.890964
H       1.219844    0.137276    1.993594
H       2.974807   -1.037695   -0.003417
H       1.676244   -3.036718   -0.678054
H       1.193820   -2.757583    1.004620
H      -1.781367   -1.072135   -0.770921
H      -1.403345   -1.373998    0.940981
H       1.225558    0.166548   -2.018316
