20

C       0.038486    1.466244    0.048965
C      -0.034835   -0.027153    0.033277
C      -1.262942   -0.913381   -0.205272
C      -0.357175   -2.099833    0.226687
C       0.584330   -1.040467    0.922140
N       1.202915   -0.781911   -0.416877
C       0.691523   -2.096136   -0.874093
C       1.637514   -3.169764   -1.283321
C       0.668465   -2.560170   -2.291142
H       1.034594    1.798548    0.353370
H      -0.163321    1.877298   -0.946645
H      -0.696660    1.887276    0.743493
H      -2.038955   -0.695217    0.534056
H      -1.701282   -0.955442   -1.208506
H      -0.771471   -3.012908    0.650481
H       1.125116   -0.994692    1.858764
H       2.685729   -2.904789   -1.370785
H       1.451092   -4.183962   -0.944811
H      -0.168279   -3.163500   -2.629692
H       1.081480   -1.896415   -3.043286
