21

C      -0.009548    1.538082    0.028131
C      -0.019691    0.012889   -0.010314
C       0.715315   -0.549757   -1.263388
C       0.698074   -2.101313   -1.220699
C      -0.045764   -2.524397    0.063229
O       0.696516   -2.007353    1.186835
C       0.718018   -0.584402    1.216185
C      -1.427626   -1.920153    0.048093
C      -1.408740   -0.587368    0.007434
H       1.013700    1.928751    0.031234
H      -0.521975    1.954092   -0.846022
H      -0.515803    1.915846    0.923358
H       0.231049   -0.170776   -2.168197
H       1.744429   -0.172910   -1.267562
H       0.201987   -2.523971   -2.099587
H       1.713258   -2.507387   -1.185747
H      -0.050298   -3.607736    0.193759
H       1.765816   -0.248302    1.216353
H       0.249362   -0.235716    2.147395
H      -2.323852   -2.529321    0.078898
H      -2.292184    0.043606    0.010493
