25

C       0.157898    1.463241   -0.204481
C       0.011514   -0.059383   -0.144250
C      -1.441749   -0.520519    0.018463
C      -1.586085   -2.044513    0.107904
C      -3.032679   -2.545858    0.197415
O      -3.697258   -2.026594    1.336426
C      -3.816395   -2.479020   -1.155717
C      -3.517886   -3.988484   -1.363759
C      -3.145066   -4.089597    0.139939
H       1.204852    1.759833   -0.321697
H      -0.403062    1.882638   -1.047272
H      -0.220539    1.933980    0.709873
H       0.430380   -0.505607   -1.055811
H       0.609606   -0.453839    0.687607
H      -1.852836   -0.057113    0.926668
H      -2.036718   -0.136288   -0.821915
H      -1.107108   -2.505123   -0.766311
H      -1.045299   -2.409686    0.990831
H      -3.700635   -1.065715    1.273284
H      -4.876554   -2.295423   -0.963456
H      -3.464519   -1.779935   -1.919534
H      -4.342627   -4.612732   -1.712712
H      -2.659655   -4.157237   -2.019537
H      -2.255816   -4.664000    0.413036
H      -3.987096   -4.421449    0.751819
