13

N      -0.192183    1.387048    0.013979
C       0.142088    0.042738    0.032030
O       1.270511   -0.372862    0.124713
N      -0.988239   -0.780138   -0.019727
C      -0.993878   -2.155411   -0.002409
N       0.050166   -2.945121   -0.095873
O      -0.546719   -4.228446   -0.044785
C      -1.852447   -4.035980    0.070923
N      -2.215333   -2.794031    0.103886
H       0.610209    1.984017   -0.116955
H      -1.013801    1.677279   -0.494219
H      -1.903274   -0.375393    0.104235
H      -2.482396   -4.911822    0.127233
