17

O       0.011134    1.403530    0.153294
C      -0.026423   -0.001269    0.029862
C      -1.438954   -0.473972   -0.028739
C      -2.541783    0.295123    0.006924
C      -3.730962   -0.557587   -0.112061
O      -4.879387   -0.261530   -0.366811
C      -3.270952   -2.014199    0.072334
O      -3.961443   -2.885340   -0.785330
C      -1.754479   -1.950184   -0.171388
H       0.930590    1.683723    0.169020
H       0.497481   -0.350667   -0.877708
H       0.471006   -0.503953    0.879083
H      -2.562002    1.374534    0.051065
H      -3.452381   -2.275626    1.129980
H      -4.817154   -2.458827   -0.943275
H      -1.536009   -2.299475   -1.187805
H      -1.169908   -2.570488    0.516370
