21

C      -0.204333    1.564265    0.009999
C       0.039635    0.056284   -0.003516
C       0.786198   -0.497815   -1.257844
C       1.902313   -1.335039   -0.589294
C       2.555126   -2.437590   -1.379392
O       2.896259   -0.413617   -0.104653
C       2.336728    0.134684    1.096300
C       0.944369   -0.518180    1.117903
O       1.274866   -1.813644    0.594244
H       0.716651    2.130089   -0.162939
H      -0.911226    1.845778   -0.776938
H      -0.628650    1.893643    0.965278
H      -0.924916   -0.453051    0.088498
H       0.138637   -1.118427   -1.882826
H       1.217283    0.291108   -1.878912
H       3.058428   -2.020123   -2.255067
H       3.294871   -2.948746   -0.759497
H       1.805169   -3.158346   -1.714101
H       2.937847   -0.169713    1.961606
H       2.315909    1.227653    1.045055
H       0.482273   -0.609271    2.100744
