23

C       0.174948    1.659033   -0.131818
C       0.044996    0.133455   -0.020874
C       0.679616   -0.563561   -1.231131
C       0.654694   -0.388149    1.286977
C      -0.122137   -0.037913    2.548846
O      -1.205475    0.512273    2.517707
C       0.514276   -0.429211    3.841758
C       0.288188    0.490889    5.034469
C      -0.408341   -0.824018    4.985850
H       1.229714    1.961614   -0.147256
H      -0.284995    2.021738   -1.056866
H      -0.315553    2.157311    0.707202
H      -1.023910   -0.109736    0.002940
H       1.756391   -0.361293   -1.285672
H       0.547518   -1.650128   -1.186317
H       0.231146   -0.210011   -2.165333
H       0.735074   -1.485895    1.267448
H       1.688743   -0.032939    1.408502
H       1.472549   -0.932279    3.775584
H       1.116854    0.624258    5.720262
H      -0.303952    1.376152    4.833144
H      -1.466814   -0.818859    4.752546
H      -0.073023   -1.622129    5.638076
