21

C      -0.035222    1.535780    0.044148
C       0.031694    0.025000    0.030460
C       1.335900   -0.691406   -0.234604
C       0.703970   -0.727812    1.154283
O       1.290195    0.085855    2.134284
C       2.081706   -0.652824    3.056989
C       1.217413   -1.631958    3.855334
C       0.332814   -2.406651    2.913946
C       0.127261   -1.990807    1.663937
H       0.852420    1.961464    0.516187
H      -0.107862    1.928444   -0.975940
H      -0.909159    1.886325    0.603310
H      -0.856581   -0.462241   -0.365038
H       1.338267   -1.593157   -0.837475
H       2.225342   -0.076105   -0.323481
H       2.871224   -1.202436    2.521495
H       2.558763    0.086898    3.705375
H       1.863513   -2.311705    4.425727
H       0.613506   -1.087789    4.594520
H      -0.125452   -3.323973    3.271990
H      -0.474384   -2.567958    0.967092
