23

C       0.002456    1.640438   -0.018348
C       1.492914    2.021575   -0.246898
C       2.253395    0.686042   -0.550478
C       1.113484   -0.290916   -0.922980
C      -0.043116    0.093600    0.017246
C       0.089901   -0.496767    1.436506
C       1.208944    0.059021    2.338681
C       2.628581   -0.093600    1.841281
C       3.077336    0.183492    0.615858
H      -0.410828    2.090046    0.890000
H      -0.607966    2.002431   -0.851790
H       1.587487    2.710599   -1.091151
H       1.927997    2.525151    0.619554
H       2.926292    0.825548   -1.400724
H       0.807412   -0.113813   -1.961869
H       1.411899   -1.339990   -0.840226
H      -0.994819   -0.268931   -0.387100
H      -0.860935   -0.334250    1.960832
H       0.212264   -1.583943    1.351786
H       1.011642    1.122687    2.539343
H       1.123845   -0.433502    3.313575
H       3.350802   -0.435054    2.580044
H       4.138448    0.041261    0.421396
