18

C      -0.043026    1.582891    0.026545
C       1.488190    1.253579   -0.018533
C       1.176761    0.078261    0.969769
C      -0.055743    0.029259    0.025064
N      -0.986140   -1.098020   -0.569973
C      -0.835768   -0.308490   -1.894166
C       0.593867   -0.264754   -1.284027
C       0.348702   -1.769557   -0.978251
O       1.706776    0.612723   -1.323504
H      -0.337309    2.046195    0.969980
H      -0.454069    2.126936   -0.823192
H       2.262132    1.995705    0.164434
H       1.880768   -0.753130    0.982270
H       0.969828    0.433818    1.980750
H      -1.009283   -0.934835   -2.771344
H      -1.426513    0.606052   -1.929454
H       0.877451   -2.235931   -0.147870
H       0.225964   -2.458538   -1.816165
