17

O       0.003576    0.064633    0.134473
C      -0.014670    1.252876    0.030992
C      -1.184948    2.274498   -0.003134
C      -0.697304    3.086735    1.186031
C       0.648449    3.105699    1.166945
C       1.124864    2.307106   -0.035930
C       0.695766    3.072830   -1.309679
C      -0.064021    2.322564   -2.381543
C      -0.813979    3.051501   -1.288252
H      -2.192240    1.865193    0.049819
H      -1.346303    3.539969    1.923826
H       1.305081    3.577342    1.886215
H       2.144404    1.926415   -0.011766
H       1.246314    3.969321   -1.569813
H      -0.084371    2.770810   -3.369081
H      -0.048897    1.236943   -2.396626
H      -1.396782    3.931980   -1.532309
