18

C      -0.031832    1.491677   -0.016026
C       0.023988   -0.009253    0.060658
N       0.110427   -0.673215    1.147023
O       0.150316    0.168257    2.266945
C       0.009019   -0.820617   -1.226616
C       0.162798   -2.347321   -1.019371
O       0.240894   -3.027140   -2.254503
C      -1.203623   -0.546298   -2.002903
C      -2.208311   -0.374280   -2.641849
H       0.911952    1.922976    0.335293
H      -0.222354    1.828854   -1.035824
H      -0.816119    1.876362    0.641974
H       0.198175   -0.462352    2.993357
H       0.868765   -0.494715   -1.831976
H       1.097005   -2.543113   -0.489576
H      -0.660478   -2.713351   -0.393135
H      -0.579579   -2.852225   -2.730400
H      -3.092352   -0.199102   -3.204144
