20

C       0.221540    1.127095   -0.110552
O      -0.370883   -0.019250    0.472328
C       0.486851   -0.700506    1.325785
C       0.125115   -2.114372    1.655602
C       1.349344   -1.836843    0.799631
C       1.289572   -2.194979   -0.670714
C       2.715551   -2.011738    1.458005
C       3.145666   -3.411807    1.506927
N       3.468687   -4.521068    1.533716
H       1.089490    0.867654   -0.732290
H      -0.539376    1.597638   -0.736785
H       0.544705    1.845235    0.657897
H       0.909213   -0.079029    2.119281
H       0.255845   -2.462431    2.674596
H      -0.743362   -2.518723    1.147661
H       0.312893   -1.939821   -1.086688
H       2.052746   -1.653915   -1.242908
H       1.460413   -3.266322   -0.819186
H       3.477301   -1.437904    0.915055
H       2.701150   -1.625110    2.483476
