18

C      -0.038844    1.422961   -0.086714
N       0.101677   -0.013707    0.037913
C       0.556688   -0.609587    1.179912
O       0.882156   -0.003310    2.184967
C       0.619098   -2.061646    1.086874
C       0.689457   -3.264244    1.061080
C       0.763645   -4.717391    1.000102
O       1.241931   -5.234544    2.221933
C       1.328641   -6.641720    2.203811
H       0.591851    1.816466   -0.891720
H      -1.078735    1.705634   -0.285133
H       0.275565    1.863882    0.859692
H      -0.141341   -0.606915   -0.738210
H      -0.236500   -5.125161    0.767634
H       1.422546   -5.015153    0.164761
H       0.346262   -7.109983    2.032931
H       2.020465   -6.998984    1.424531
H       1.704249   -6.952055    3.180794
