18

C       0.007227    1.480010    0.125700
C      -0.031712   -0.013810   -0.021401
C       0.680736   -0.800257   -1.153891
C       0.694057   -1.841630   -0.025516
O       0.817425   -0.749364    0.944463
C      -0.785928   -2.223684    0.194631
O      -0.977933   -2.846899    1.443952
C      -1.370901   -0.772999    0.111166
H       1.031071    1.854619    0.041875
H      -0.601901    1.952972   -0.651498
H      -0.392747    1.780068    1.099832
H       0.131693   -1.015390   -2.074640
H       1.676996   -0.407868   -1.363841
H       1.445927   -2.622715    0.084216
H      -1.183712   -2.904302   -0.561985
H      -0.511649   -2.288354    2.080699
H      -1.907526   -0.519270    1.028674
H      -2.035638   -0.612197   -0.742049
