19

C      -0.144269    1.572860    0.209508
C       0.073753    0.096334   -0.013567
C      -0.857269   -0.913076    0.616793
C       0.571119   -0.826995    1.096489
C       1.549974   -1.817776    0.506701
O       1.422423   -3.142532    0.955590
C       1.287258   -1.719815   -1.005185
O       1.445790   -2.654714   -1.750377
C       0.711845   -0.348626   -1.327512
H       0.791652    2.134182    0.103962
H      -0.859834    1.982661   -0.512924
H      -0.539358    1.766129    1.211780
H      -1.624077   -0.530865    1.281424
H      -1.162413   -1.790542    0.053473
H       0.766097   -0.432318    2.086995
H       2.577849   -1.445972    0.681665
H       1.565175   -3.695967    0.172970
H       0.027778   -0.404108   -2.179567
H       1.532728    0.326095   -1.609328
