23

C      -0.051372    1.593649   -0.043233
C      -0.008440    0.063468   -0.014060
C       0.723606   -0.496589    1.210562
C       0.772204   -2.027719    1.248841
C       1.504085   -2.586356    2.473771
C       1.553411   -4.117780    2.513268
C       2.286504   -4.665952    3.740556
H       0.959059    2.017500   -0.057916
H      -0.580020    1.964069   -0.927300
H      -0.561888    1.991933    0.840842
H      -1.032353   -0.332940   -0.035370
H       0.477483   -0.307558   -0.926317
H       1.748316   -0.099505    1.232714
H       0.237737   -0.125191    2.123903
H      -0.252710   -2.424044    1.226422
H       1.258213   -2.398378    0.335370
H       2.529227   -2.190438    2.496808
H       1.018492   -2.216126    3.387733
H       0.529018   -4.512882    2.490780
H       2.039087   -4.487216    1.600235
H       2.305688   -5.760431    3.741597
H       3.324169   -4.314998    3.770925
H       1.802442   -4.340817    4.668357
