25

C      -0.663968    1.664050   -0.082408
O      -0.421793    0.295975    0.171065
C      -1.570546   -0.557072    0.070169
C      -1.979257   -0.774934   -1.388679
C      -1.225891   -1.881143    0.759508
C      -0.732876   -1.795690    2.224801
C      -1.692246   -0.984861    3.115006
C      -0.571254   -3.212389    2.785536
O       0.569778   -1.215860    2.271556
H       0.260250    2.201191    0.143367
H      -0.929004    1.853069   -1.131070
H      -1.469149    2.056614    0.556827
H      -2.403712   -0.072311    0.603345
H      -2.842981   -1.444785   -1.442670
H      -2.258892    0.161862   -1.878696
H      -1.155717   -1.226307   -1.950707
H      -2.119343   -2.515293    0.713698
H      -0.444107   -2.385413    0.178461
H      -2.711376   -1.387453    3.090817
H      -1.337281   -1.007666    4.149166
H      -1.729414    0.063000    2.802768
H       0.083001   -3.806559    2.140780
H      -0.113763   -3.164047    3.777928
H      -1.536601   -3.721096    2.871265
H       0.545577   -0.459604    1.669335
