19

C       0.270668    1.472226    0.070263
C      -0.067688   -0.018436   -0.038298
C       0.601648   -0.677398   -1.292111
C       1.840004   -1.280198   -0.695357
C       3.046880   -1.853728   -1.008685
N       3.634723   -2.222791    0.178541
C       2.818837   -1.894817    1.256394
C       1.702062   -1.310376    0.713922
N       0.455918   -0.797396    1.121884
H       1.355906    1.620610    0.075970
H      -0.148478    2.031409   -0.773320
H      -0.140315    1.903569    0.990237
H      -1.155844   -0.135652   -0.078520
H      -0.058678   -1.442825   -1.719025
H       0.781887    0.065536   -2.075931
H       3.542558   -2.032209   -1.949504
H       4.545399   -2.636588    0.261284
H       3.121775   -2.104484    2.268321
H       0.473526   -0.255164    1.977130
