17

O       0.050047    1.415177   -0.136070
C      -0.033367    0.040346   -0.003871
C      -0.410656   -0.679134    1.268112
C      -1.154258    0.081552    2.374527
C      -2.530279    0.436350    1.811921
N      -2.502616    1.402130    0.692135
C      -2.619543   -0.059921    0.413471
C      -1.331146   -0.751398    0.037346
H      -0.826065    1.767545    0.118895
H       0.765272   -0.439990   -0.564997
H       0.190199   -1.531542    1.569412
H      -1.277798   -0.564045    3.249491
H      -0.612595    0.977452    2.698707
H      -3.388809    0.466997    2.475126
H      -3.407012    1.853459    0.590619
H      -3.549711   -0.414513   -0.015894
H      -1.420766   -1.649897   -0.563097
