25

C       0.110129    1.413693    0.281773
C       0.305366   -0.095686    0.106266
C       0.636014   -0.533040   -1.331988
C       1.968652    0.033917   -1.839087
C       0.627572   -2.059367   -1.423057
O       0.774810   -2.444619   -2.781025
C       0.813445   -3.823030   -2.964200
C       1.531550   -4.313917   -4.177566
C       2.123186   -4.553843   -2.801152
H       1.025590    1.972186    0.065231
H      -0.674340    1.790083   -0.384439
H      -0.184089    1.651994    1.308699
H       1.102389   -0.441020    0.779591
H      -0.608871   -0.610306    0.429912
H      -0.165802   -0.173592   -1.992564
H       2.791233   -0.250582   -1.170628
H       2.192440   -0.356036   -2.834492
H       1.948995    1.125510   -1.897932
H       1.444907   -2.485744   -0.817870
H      -0.318473   -2.459520   -1.021992
H      -0.096621   -4.341446   -2.657107
H       1.114170   -5.151732   -4.724515
H       2.005977   -3.558320   -4.793171
H       2.985046   -3.955414   -2.527774
H       2.116847   -5.559243   -2.394560
