19

C      -0.019190    1.656675    0.200972
C       1.432677    1.175882    0.042754
O       1.101594    0.017371    0.932532
C      -0.007364    0.117895   -0.048129
C      -1.140932   -0.823817   -0.289098
C      -1.652584   -0.445207   -1.708361
O      -0.632137   -0.408730   -2.696144
C       0.364064    0.600921   -2.492503
C       1.037089    0.277555   -1.166192
H      -0.294808    1.945739    1.215610
H      -0.442363    2.321894   -0.553740
H       2.366321    1.697348    0.253967
H      -0.772922   -1.855282   -0.289656
H      -1.954597   -0.741123    0.439245
H      -2.375930   -1.186065   -2.057894
H      -2.165282    0.529460   -1.658223
H       1.040871    0.521928   -3.347029
H      -0.094973    1.599820   -2.513437
H       1.680619   -0.601216   -1.249656
