25

C       0.035152    1.586366    0.032384
C       0.013364    0.055913   -0.006513
C       0.661415   -0.502144   -1.281334
C       0.443886   -2.017081   -1.394911
C       0.831044   -2.799850   -0.146277
C       0.285141   -4.213916   -0.112414
C       2.186496   -2.566402    0.472240
C       0.944320   -2.045424    1.166513
C       0.686404   -0.540499    1.244787
H       1.064266    1.964059    0.000444
H      -0.502780    2.015194   -0.819895
H      -0.428259    1.969039    0.948428
H      -1.037396   -0.270997   -0.009538
H       0.238588   -0.010433   -2.165397
H       1.733657   -0.261198   -1.283364
H      -0.623040   -2.195290   -1.591601
H       0.982996   -2.417408   -2.263912
H       0.643727   -4.796332   -0.970268
H       0.592904   -4.740586    0.796684
H      -0.811121   -4.217822   -0.146158
H       2.704584   -3.416947    0.903896
H       2.847179   -1.833154    0.019165
H       0.642104   -2.602362    2.049122
H       1.634797   -0.012800    1.418082
H       0.062019   -0.324847    2.119249
