19

O       0.423771    0.825008    0.898631
C      -0.036338   -0.320976    0.193545
C      -1.487466   -0.253183   -0.238410
C      -1.831594    0.680605   -1.384465
C      -1.617369   -0.786630   -1.642575
C      -0.237072   -1.203562   -2.140537
C       0.775818   -0.629517   -1.125930
C       1.526625    0.602004   -1.599390
O       1.289385    1.216707   -2.610488
H      -0.047678    1.587065    0.543604
H       0.096859   -1.155050    0.890291
H      -2.243834   -0.440732    0.515392
H      -2.850362    1.050661   -1.412994
H      -1.095099    1.381031   -1.764193
H      -2.470621   -1.390849   -1.929071
H      -0.168692   -2.295873   -2.159550
H      -0.029106   -0.838009   -3.150429
H       1.558588   -1.359009   -0.884056
H       2.351096    0.914127   -0.925966
