16

C       0.022900    1.486306   -0.009271
N      -0.027982    0.035656   -0.063455
C       0.545698   -0.698983   -1.042899
N       0.721393   -1.971000   -1.019171
C       1.367096   -2.309010   -2.287418
C       1.362755   -0.974017   -3.102492
O       0.925892    0.003930   -2.144500
C       2.732007   -2.826047   -2.077376
N       3.808633   -3.220639   -1.934540
H       0.987901    1.868086    0.349632
H      -0.160184    1.894184   -1.003858
H      -0.763604    1.841275    0.660521
H      -0.148826   -0.469870    0.799454
H       0.805236   -3.088432   -2.815125
H       2.344084   -0.682601   -3.478974
H       0.644636   -1.003933   -3.926604
