18

C      -0.026859    1.517268   -0.040028
C       1.501298    1.570402    0.048503
C       1.996520    0.876089    1.295537
N       1.398751    0.999902    2.578406
C       0.273139    0.600843    2.981834
O      -0.754306   -0.084494    2.420342
C      -0.656457   -0.781797    1.173619
C       0.047386   -0.047268    0.043336
C       1.572667    0.038003    0.116321
H      -0.575225    2.032988    0.752948
H      -0.407886    1.853665   -1.006005
H       2.134159    2.264806   -0.490661
H       3.079187    0.946003    1.372511
H      -0.027887    0.844037    4.001580
H      -0.156339   -1.744992    1.347992
H      -1.699174   -0.988987    0.913414
H      -0.280028   -0.500996   -0.896535
H       2.259838   -0.648613   -0.365714
