15

C      -0.425433    1.368404   -0.020703
N       0.054511   -0.008156    0.015118
N       0.359113   -0.570870   -1.159922
C       0.789260   -1.787383   -1.200072
C       0.975210   -2.627043   -0.013028
O       1.375523   -3.771571   -0.004551
N       0.632290   -1.952622    1.156911
C       0.164377   -0.645807    1.253526
N      -0.155867   -0.009884    2.311295
H       0.234585    2.014823    0.562600
H      -0.435748    1.671337   -1.066042
H      -1.427582    1.431360    0.409935
H       1.024520   -2.205772   -2.170459
H       0.738050   -2.477709    2.014133
H      -0.033339   -0.576957    3.146816
