22

C       0.123971    1.436669    0.270815
C      -0.129206   -0.063441    0.086347
C      -1.605680   -0.482733   -0.154678
C      -2.115435    0.068712   -1.496456
C      -1.729967   -2.038501   -0.092083
C      -2.211560   -2.383643    1.339805
C      -2.802058   -1.077726    1.815721
C      -2.485825   -0.064300    1.012909
H       1.188169    1.627725    0.441866
H      -0.173251    2.015391   -0.609421
H      -0.422528    1.833422    1.132365
H       0.470844   -0.429603   -0.757880
H       0.235194   -0.594439    0.974766
H      -1.505934   -0.303184   -2.328374
H      -3.150879   -0.239103   -1.673262
H      -2.087620    1.162563   -1.527765
H      -2.483863   -2.368473   -0.814490
H      -0.792370   -2.536225   -0.356991
H      -2.935192   -3.206819    1.348822
H      -1.385681   -2.699883    1.992403
H      -3.388297   -0.996342    2.725124
H      -2.785032    0.967417    1.166672
