17

C      -0.494527    1.293797    0.183338
C       0.006802   -0.118591   -0.149033
C       0.785105   -0.122437   -1.397008
N       1.384814   -0.133106   -2.384211
N       0.881648   -0.579976    0.941268
C       0.268275   -1.234648    2.070042
C       1.133763   -2.025241    1.125160
C       0.471400   -3.062796    0.280190
O      -0.675057   -3.012605   -0.102777
H       0.347422    1.971134    0.341083
H      -1.114974    1.676726   -0.630157
H      -1.097320    1.261210    1.094792
H      -0.848192   -0.789560   -0.304536
H       0.660699   -0.969955    3.047700
H      -0.796486   -1.457803    2.025713
H       2.160434   -2.249532    1.400891
H       1.124058   -3.921090    0.016340
