20

O      -0.103928    0.042697    0.932947
C      -0.032681    1.219408    0.660701
N       0.993642    1.815077   -0.043103
C       1.009276    3.268084   -0.175168
C       1.233283    3.804266   -1.591973
C       2.685320    3.691724   -2.062443
C       3.140217    2.266104   -2.394079
C       3.029796    1.217017   -1.318137
C       2.098994    1.013478   -0.381464
H      -0.807093    1.953551    0.953054
H       0.046038    3.624429    0.202109
H       1.787726    3.679435    0.483760
H       0.556968    3.296023   -2.290924
H       0.942904    4.861588   -1.583601
H       2.822569    4.308528   -2.957819
H       3.340648    4.115622   -1.289816
H       2.567913    1.916057   -3.268307
H       4.182081    2.304591   -2.732118
H       3.787975    0.439502   -1.364747
H       2.124942    0.110185    0.217364
