16

C       0.095954    1.462678    0.076613
C      -0.012008   -0.059322    0.159269
O       0.616548   -0.592394    1.301635
C      -1.495186   -0.564607    0.068853
O      -2.123757   -0.153865   -1.130014
C      -1.466879   -2.104545   -0.013388
O      -1.667500   -2.845053    0.902447
C      -2.228828   -0.116932    1.266240
N      -2.760506    0.307964    2.200163
H       1.147522    1.747591    0.159318
H      -0.278152    1.844510   -0.878407
H      -0.457412    1.944671    0.890350
H       0.505029   -0.505675   -0.698075
H       0.211547   -0.207633    2.089097
H      -2.250374    0.800904   -1.107741
H      -1.226872   -2.448428   -1.041594
