22

C      -0.256232    1.557283    0.437430
C       0.239731    0.121101    0.226650
C       0.973751   -0.407354    1.458911
N      -0.935586   -0.716002   -0.042136
C      -1.492275   -1.245369   -1.242806
C      -0.558207   -2.145725   -2.133854
C       0.842230   -2.356373   -1.614960
C      -0.301008   -3.051887   -0.940549
C      -1.205212   -2.123997   -0.053471
H       0.585598    2.239725    0.597132
H      -0.813665    1.903930   -0.438104
H      -0.922421    1.609571    1.304177
H       0.926661    0.142009   -0.628614
H       1.360950   -1.416859    1.292919
H       1.813415    0.245321    1.715280
H       0.293447   -0.442160    2.316334
H      -2.444055   -0.876476   -1.613255
H      -0.843823   -2.440412   -3.135452
H       1.441162   -3.006019   -2.248207
H       1.421643   -1.587755   -1.126505
H      -0.387088   -4.130189   -0.896436
H      -1.894079   -2.532562    0.679249
