17

O       0.369602    0.781583    0.824784
C      -0.105653   -0.247737    0.000124
C      -1.615771   -0.226633   -0.124346
C      -2.276022    0.521649   -1.256956
C      -2.159335   -0.981008   -1.304167
C      -1.136062   -1.645331   -2.199334
O       0.054502   -0.857346   -2.390474
C       0.574120   -0.157789   -1.368672
O       1.550580    0.529030   -1.535222
H       1.146246    1.140410    0.367867
H       0.181856   -1.231750    0.418053
H      -2.138264   -0.277965    0.824694
H      -3.258777    0.940330   -1.074348
H      -1.658148    1.117568   -1.920425
H      -3.063546   -1.568686   -1.177902
H      -0.847279   -2.622842   -1.791542
H      -1.522232   -1.803059   -3.209767
