22

C       0.053895    1.505331   -0.107997
C       0.011354   -0.015786    0.048682
C      -1.415830   -0.609276    0.032497
C      -1.406884   -2.156124    0.092617
C      -2.779291   -2.781026   -0.024902
C      -3.401119   -2.996268   -1.383875
C      -2.931907   -4.177283   -0.569489
C      -2.217441   -0.058400    1.131433
N      -2.837527    0.367484    2.009685
H       1.086445    1.866043   -0.099646
H      -0.401977    1.819812   -1.053252
H      -0.483277    2.003036    0.704904
H       0.569977   -0.491929   -0.765508
H       0.504510   -0.311775    0.981918
H      -1.909748   -0.307610   -0.901016
H      -0.769812   -2.512054   -0.726137
H      -0.924779   -2.470146    1.026703
H      -3.464703   -2.504466    0.771386
H      -4.467402   -2.836038   -1.496111
H      -2.818237   -2.725047   -2.258909
H      -2.036291   -4.694479   -0.898453
H      -3.677624   -4.824792   -0.122291
