15

N      -0.288172    1.167671   -0.120593
C      -0.095261   -0.062962    0.017733
O       0.916576   -0.673174    0.706547
C       0.871648   -2.077209    0.454602
C      -0.564982   -2.290322   -0.048243
C      -1.528758   -2.737145    1.067019
C      -2.907355   -2.868539    0.603825
N      -3.993491   -2.994745    0.232530
O      -0.921067   -0.996136   -0.527113
H       0.457893    1.696513    0.324302
H       1.614085   -2.342027   -0.305866
H       1.096831   -2.609443    1.381613
H      -0.618634   -2.984663   -0.889159
H      -1.197225   -3.706137    1.458392
H      -1.488988   -2.019173    1.893987
