20

C      -0.124574    1.550593    0.012836
C       0.027020    0.027103    0.004227
C       0.744918   -0.509938    1.245983
C       0.899716   -2.040957    1.233902
C       1.551041   -2.566383    2.471891
N       2.743480   -3.146836    2.465686
N       2.930309   -3.439306    3.776948
C       1.869581   -3.033212    4.500506
N       0.974624   -2.475243    3.712194
H       0.852307    2.045365    0.051860
H      -0.641918    1.906334   -0.883780
H      -0.698366    1.885848    0.883939
H      -0.964135   -0.439979   -0.070247
H       0.575692   -0.282127   -0.895483
H       1.738427   -0.049506    1.325430
H       0.196172   -0.217899    2.149313
H      -0.091754   -2.500090    1.135329
H       1.493578   -2.357156    0.370831
H       3.773335   -3.902082    4.073586
H       1.796132   -3.164392    5.569909
