18

C      -0.642804    1.329619   -0.296495
C       0.100319    0.037859   -0.003785
O       0.561322   -0.502118   -1.228198
C       1.269671   -1.708859   -1.073979
C       1.702980   -2.181302   -2.423475
C       1.483982   -1.594423   -3.628845
O       2.030108   -2.321390   -4.616588
N       2.641893   -3.440905   -4.068004
C       2.441846   -3.346057   -2.776689
H       0.018389    2.049877   -0.786349
H      -1.494795    1.140990   -0.955613
H      -1.013390    1.773673    0.631979
H       0.952451    0.223554    0.671370
H      -0.560893   -0.685349    0.502394
H       2.145780   -1.564190   -0.416924
H       0.637716   -2.470790   -0.583772
H       0.973748   -0.691471   -3.919814
H       2.834363   -4.118751   -2.129794
