18

N      -0.155409    1.458864   -0.048862
C      -0.004403    0.022739   -0.089924
C       1.122648   -0.510334   -0.959754
O       2.374248    0.016270   -0.539321
C      -0.326374   -0.701908    1.193506
C      -1.321265   -0.745937    0.024476
N      -2.543297    0.013356    0.024584
C      -1.430784   -2.009481   -0.674508
N      -1.518455   -3.032496   -1.207556
H       0.698441    1.860564    0.329434
H      -0.239158    1.819761   -0.997051
H       1.125106   -1.607716   -0.976224
H       0.986429   -0.167456   -1.991692
H       2.603512   -0.403828    0.296481
H       0.226085   -1.605266    1.429956
H      -0.636448   -0.103554    2.042446
H      -3.187694   -0.344505    0.722319
H      -2.313950    0.975721    0.257973
