19

C      -0.268876    1.173508    0.796136
C       0.013824   -0.244669    0.289600
C       0.648507   -0.319637   -1.109404
C       2.114646    0.113727   -1.110007
O       2.557001    0.198227   -2.459861
C       0.514497   -1.732562   -1.700653
O      -0.837256   -2.145791   -1.856173
H       0.644172    1.767990    0.904158
H      -0.932455    1.711270    0.109624
H      -0.757459    1.147527    1.775302
H       0.660146   -0.772364    1.005408
H      -0.923041   -0.809627    0.251647
H       0.113094    0.371740   -1.778753
H       2.222569    1.084003   -0.603598
H       2.712124   -0.619665   -0.541970
H       3.490875    0.426284   -2.457135
H       1.061991   -1.786096   -2.649590
H       0.966074   -2.460930   -1.015446
H      -1.228543   -1.601936   -2.547213
