17

C       0.488091    1.237309    0.263466
N       0.038626   -0.124208    0.077010
N       0.158452   -0.739782   -1.126406
N      -0.346462   -1.931754   -1.007110
C      -0.789889   -2.109162    0.267035
C      -0.545655   -0.952949    0.979729
N      -0.842528   -0.519472    2.270969
C      -0.976223   -1.521897    3.321074
C       0.198149   -0.609065    3.311958
H       1.385432    1.276953    0.889203
H       0.717586    1.640067   -0.722855
H      -0.300030    1.828429    0.736561
H      -1.264730   -3.022487    0.585197
H      -1.794983   -1.355081    4.013594
H      -0.797681   -2.560428    3.055157
H       1.156497   -1.034574    3.026269
H       0.242689    0.237650    3.989060
