20

C       0.026192    1.478582    0.157901
N      -0.061011    0.036366    0.153597
C      -1.341460   -0.595671    0.529495
C      -0.535205   -1.705769    1.222881
C       0.653717   -0.721985    1.201172
O      -1.069597   -2.082590    2.489705
C      -0.365979   -3.020175    3.166104
C      -1.049042   -3.364836    4.466841
O       0.662718   -3.498734    2.761078
H       1.054440    1.787936   -0.057360
H      -0.618682    1.892236   -0.624857
H      -0.273228    1.930575    1.123366
H      -1.917380   -0.020297    1.272996
H      -1.994760   -0.864581   -0.306607
H      -0.365444   -2.595173    0.615651
H       1.637777   -1.104342    0.918458
H       0.728763   -0.183321    2.160613
H      -1.198706   -2.461994    5.065228
H      -2.037269   -3.789855    4.268022
H      -0.441442   -4.082533    5.016482
