20

O       0.137414    1.410501   -0.133050
C       0.092655    0.013469    0.057848
C      -1.348030   -0.501268   -0.001652
O      -1.959533   -0.021829   -1.209309
C      -1.461774   -2.008701    0.130881
C      -1.147728   -2.668268    1.506570
C      -2.349715   -3.624551    1.279677
C      -2.878731   -2.645424    0.196550
H      -0.513294    1.589370   -0.825104
H       0.693411   -0.518035   -0.704636
H       0.540050   -0.203835    1.034024
H      -1.921242   -0.016685    0.798781
H      -1.597335   -0.535104   -1.941545
H      -0.865817   -2.488393   -0.658392
H      -0.158588   -3.110366    1.646093
H      -1.334407   -1.971162    2.330351
H      -2.031765   -4.577149    0.846391
H      -2.997130   -3.833777    2.134050
H      -3.607929   -1.938489    0.603936
H      -3.289188   -3.071533   -0.721534
