21

O      -0.363669    1.476255    0.003951
C      -0.022164    0.103972    0.132763
C      -1.302321   -0.709284    0.052727
C      -1.953143   -0.720552   -1.358713
C      -1.340646   -2.133582   -1.604315
C      -1.055444   -2.239196   -0.079082
C      -2.226202   -3.164459   -2.249022
C      -2.277593   -4.565792   -1.815066
O      -3.326143   -3.654800   -1.474224
H       0.446495    1.993383    0.030058
H       0.672072   -0.208308   -0.666224
H       0.479153   -0.096099    1.094286
H      -1.961902   -0.402806    0.868687
H      -3.044049   -0.762932   -1.307559
H      -1.660356    0.085574   -2.034762
H      -0.413746   -2.065869   -2.184594
H      -0.072298   -2.612876    0.222846
H      -1.830298   -2.819898    0.426368
H      -2.490013   -2.954245   -3.288224
H      -2.548704   -5.346534   -2.524390
H      -1.657490   -4.891925   -0.981170
