20

C       0.433828    0.753180   -0.739539
C      -0.299709    0.430216    0.573539
C      -1.606502   -0.269561    0.360591
N      -2.757187    0.212722    0.639568
C      -3.753314   -0.800119    0.249499
C      -4.776251   -0.249670   -0.746261
C      -2.953592   -1.976972   -0.316848
N      -3.439490   -3.055209   -0.781179
N      -1.633030   -1.554656   -0.192558
H       1.373986    1.271951   -0.533613
H       0.671977   -0.151992   -1.307744
H      -0.178815    1.396513   -1.377504
H       0.341522   -0.192743    1.210760
H      -0.517100    1.347565    1.124724
H      -4.282920   -1.134599    1.150612
H      -4.275380    0.124869   -1.644051
H      -5.466791   -1.043931   -1.040229
H      -5.335478    0.573841   -0.295564
H      -2.713299   -3.695101   -1.107690
H      -0.830180   -2.078974   -0.497347
