22

C       0.006847    1.491188    0.247349
C      -0.103855   -0.022653    0.046993
C      -1.541800   -0.546288   -0.150230
C      -2.169685   -0.035183   -1.450252
C      -1.585389   -2.093724   -0.049270
C      -2.002987   -2.350049    1.405750
C      -2.923767   -1.156702    1.661139
O      -2.340297   -0.069131    0.958853
H       1.037021    1.774239    0.484814
H      -0.286053    2.046425   -0.649058
H      -0.637242    1.812322    1.069601
H       0.499063   -0.335150   -0.815491
H       0.320574   -0.529804    0.922553
H      -1.603382   -0.384285   -2.320808
H      -3.197504   -0.398931   -1.542891
H      -2.197455    1.057032   -1.473041
H      -2.339237   -2.495982   -0.734405
H      -0.626238   -2.547691   -0.310589
H      -2.497556   -3.313844    1.551104
H      -1.136556   -2.309591    2.074071
H      -3.939851   -1.363323    1.285421
H      -3.006935   -0.878063    2.716638
