23

C       0.006691    1.632089    0.022680
C      -0.050194    0.102288   -0.062219
C       0.735577   -0.500381   -1.245445
C       2.221050   -0.105928   -1.204042
C       0.592302   -2.048600   -1.315169
C      -0.857616   -2.555094   -1.238376
O      -0.955975   -3.927714   -1.592016
C       1.176872   -2.549961   -2.626588
O       2.203734   -3.166540   -2.741855
H       1.015009    1.997880    0.234470
H      -0.325767    2.092626   -0.914652
H      -0.648288    1.996450    0.820055
H       0.327477   -0.331583    0.874132
H      -1.101626   -0.195089   -0.134857
H       0.298112   -0.092565   -2.170502
H       2.789941   -0.584344   -2.005378
H       2.349545    0.974440   -1.305279
H       2.674971   -0.411321   -0.253821
H       1.181991   -2.499643   -0.505468
H      -1.281655   -2.369317   -0.243309
H      -1.481966   -2.021265   -1.964753
H      -0.404616   -4.434005   -0.985836
H       0.568888   -2.272196   -3.520218
