24

C      -0.029777    1.465266   -0.123644
C      -0.172975   -0.058569   -0.112139
C      -1.484716   -0.514348    0.539137
N      -1.640123   -1.959349    0.570530
C      -2.420305   -2.637975   -0.320955
O      -3.085235   -2.077521   -1.177292
C      -2.423942   -4.162560   -0.170996
C      -3.847318   -4.630026    0.171804
C      -1.926947   -4.798972   -1.478172
H       0.908303    1.772002   -0.595370
H      -0.850416    1.934197   -0.677223
H      -0.040053    1.874709    0.892880
H      -0.139962   -0.449328   -1.135534
H       0.674172   -0.508684    0.422330
H      -1.551571   -0.125750    1.563301
H      -2.337825   -0.126767   -0.023186
H      -1.078101   -2.488635    1.216595
H      -1.749327   -4.453093    0.645213
H      -4.543946   -4.290225   -0.599208
H      -3.891507   -5.722131    0.228362
H      -4.181786   -4.225354    1.132434
H      -0.892977   -4.512659   -1.696501
H      -1.971842   -5.890706   -1.416881
H      -2.552193   -4.467832   -2.311566
