13

C      -0.545829   -0.665576   -1.111876
C      -0.168653    0.121809   -0.287058
C       0.294186    1.078196    0.708456
C       1.536669    1.850583    0.317259
C       2.224960    1.701501   -0.884185
N       3.305813    2.427011   -1.133036
N       3.713194    3.295401   -0.211377
N       3.067814    3.440959    0.925083
N       1.981872    2.731479    1.208267
H      -0.890390   -1.365783   -1.832927
H      -0.493701    1.807524    0.936053
H       0.502143    0.572172    1.659865
H       1.910323    0.999522   -1.649353
