21

O      -0.130723    1.464436   -0.038001
C       0.000757    0.047643    0.003168
C      -1.384974   -0.539879    0.018889
C      -2.242323   -0.355413    1.299998
C      -2.793557   -1.795869    1.153392
C      -3.880689   -1.925593    0.056977
C      -2.791244   -1.860357   -1.042868
C      -2.239602   -0.430957   -1.272613
C      -1.695216   -2.084195    0.063943
H       0.750737    1.848783   -0.050662
H       0.555118   -0.325922   -0.874493
H       0.553431   -0.274430    0.902070
H      -1.598706   -0.269888    2.181835
H      -2.961955    0.469057    1.314336
H      -2.926096   -2.378591    2.065685
H      -4.341497   -2.918053    0.085622
H      -4.676271   -1.172339    0.034030
H      -2.921895   -2.495632   -1.919662
H      -2.959146    0.391212   -1.336847
H      -1.594148   -0.397328   -2.156616
H      -0.956162   -2.882903    0.088152
