23

C       0.618246    1.325699    0.332402
C      -0.045191    0.006567   -0.072338
C       0.577948   -0.680388   -1.309586
C       1.481978   -1.792301   -0.749003
C       1.468971   -3.067777   -1.581189
C       2.900678   -1.342418   -0.261815
C       2.462622   -1.532150    1.218159
C       1.029595   -1.911614    0.743455
O       0.012190   -0.961319    0.983727
H       1.699812    1.222808    0.459549
H       0.438783    2.089769   -0.432069
H       0.196944    1.680847    1.277207
H      -1.110917    0.204003   -0.239032
H      -0.212850   -1.124340   -1.922960
H       1.124096    0.026869   -1.941106
H       1.884744   -2.892768   -2.580456
H       2.066657   -3.856519   -1.110857
H       0.448869   -3.448880   -1.704929
H       3.707470   -2.005511   -0.584846
H       3.174960   -0.321843   -0.540484
H       2.982531   -2.341798    1.736692
H       2.492824   -0.642217    1.849647
H       0.663638   -2.884574    1.086583
