17

C      -0.031500    1.555969    0.060975
C      -0.012291    0.055064   -0.039588
C      -0.034040   -0.583026   -1.211717
C      -0.005622   -2.075823   -1.398420
C       0.224597   -2.867073   -0.122132
O       0.698760   -3.974245   -0.101765
C      -0.205555   -2.175782    1.195363
O      -0.695679   -2.819192    2.088201
C       0.039974   -0.679445    1.281739
H       0.847698    1.925708    0.604204
H      -0.045962    2.026501   -0.925025
H      -0.909903    1.902441    0.620092
H      -0.069823    0.002939   -2.127257
H      -0.964649   -2.423734   -1.816254
H       0.751540   -2.383266   -2.129758
H       1.033927   -0.542824    1.739613
H      -0.668970   -0.261918    2.006770
