15

O       0.013505   -0.031197    0.002754
C       0.010106    1.182525    0.009038
C      -1.250407    1.962672    0.030642
C      -1.265397    3.315293    0.037512
N      -0.043092    3.927010    0.023230
C       0.629247    5.235663    0.021139
C       1.983449    4.437616   -0.001671
C       1.108769    3.190154    0.003786
N       1.234960    1.920200   -0.004175
H      -2.172891    1.396913    0.040800
H      -2.155194    3.933648    0.053038
H       0.420050    5.836031   -0.868141
H       0.444584    5.826248    0.922327
H       2.586376    4.573494   -0.900786
H       2.610904    4.564090    0.881899
