19

C      -0.010934    1.478452   -0.061613
C       1.390545    2.111155    0.000722
C       2.049524    1.978227    1.384282
C       2.738044    0.625356    1.641545
O       2.129550   -0.496693    1.030644
C       0.731452   -0.641757    1.222089
C      -0.049699   -0.052350    0.044132
H      -0.617909    1.912176    0.745916
H      -0.499446    1.775338   -0.997514
H       2.038097    1.673023   -0.769035
H       1.295606    3.175941   -0.241567
H       2.808846    2.757693    1.521029
H       1.289223    2.167576    2.152495
H       3.751738    0.642073    1.226478
H       2.834237    0.466676    2.728819
H       0.538012   -1.719217    1.285648
H       0.411511   -0.199153    2.178076
H      -1.093889   -0.385521    0.108236
H       0.366879   -0.496804   -0.868413
