21

O      -0.075249    1.387141    0.030128
C       0.064945   -0.028370   -0.037700
C       0.174487   -0.498686   -1.520253
C      -1.379102   -0.558331   -1.566480
C      -1.384104   -0.607007   -0.023087
O      -1.432905   -1.963629    0.378634
C      -0.734156   -2.230938    1.584068
C       0.766116   -2.009222    1.394888
C       1.030426   -0.541744    1.027301
H       0.763628    1.777764   -0.238509
H       0.681204    0.192386   -2.199300
H       0.626582   -1.489120   -1.613258
H      -1.814571    0.367637   -1.944304
H      -1.840678   -1.416841   -2.056039
H      -2.119461   -0.002736    0.525710
H      -1.115617   -1.598447    2.404104
H      -0.955220   -3.272731    1.834180
H       1.308126   -2.275449    2.309198
H       1.117128   -2.681495    0.603159
H       2.069903   -0.396354    0.703563
H       0.882594    0.083662    1.916526
