19

C       0.093484    1.316088   -0.258081
C       0.203837   -0.136365    0.117602
O       1.521699   -0.682859    0.235615
C       0.711067   -0.620048    1.425984
C       1.139574    0.332836    2.425807
C       1.469902    1.095802    3.294320
C       0.270220   -1.950214    1.978380
C       0.292364   -3.178586    1.108989
C       1.296673   -3.027015    2.223904
H       0.769934    1.928031    0.341500
H       0.340545    1.451465   -1.316158
H      -0.931679    1.669208   -0.103903
H      -0.496436   -0.807533   -0.382961
H       1.772080    1.773806    4.053971
H      -0.531384   -1.866292    2.705999
H      -0.511791   -3.896533    1.223833
H       0.665757   -3.062634    0.098399
H       2.319991   -2.809984    1.938847
H       1.192487   -3.640091    3.111712
