18

C      -0.087030    1.519804   -0.071193
C       0.030810    0.016648    0.017669
C       1.325126   -0.680821   -0.216563
C       0.750366   -0.642948    1.197621
C       1.348882    0.043665    2.364740
C       1.127334   -0.722608    3.442946
N       0.420918   -1.883688    3.094112
C       0.153107   -1.917301    1.736164
O      -0.438809   -2.789714    1.134068
H       0.841087    2.015448    0.229302
H      -0.305834    1.825179   -1.100154
H      -0.891446    1.896448    0.568847
H      -0.851217   -0.542399   -0.284986
H       1.311636   -1.652088   -0.699437
H       2.211521   -0.079720   -0.391765
H       1.872266    0.986552    2.350125
H       1.412125   -0.560341    4.471981
H       0.135730   -2.613416    3.724791
