20

C      -0.007398    1.589677    0.057665
N       0.132260    0.141913    0.101345
C       1.375089   -0.541126   -0.189680
C       2.614247    0.197581    0.350542
C       1.978679    0.176853    1.775087
C       0.758872   -0.575151    1.194367
C      -0.023039   -1.649007    1.910080
C      -0.969005   -1.052686    2.934516
O      -0.985491   -1.334591    4.104702
H       0.851552    2.157104    0.440615
H      -0.177190    1.891495   -0.980429
H      -0.888554    1.875713    0.640578
H       1.374110   -1.296451   -0.969563
H       3.515936   -0.415350    0.292301
H       2.831032    1.174533   -0.091369
H       2.547601   -0.441232    2.472921
H       1.776293    1.139341    2.254227
H      -0.630625   -2.181738    1.167515
H       0.636232   -2.361908    2.414331
H      -1.673308   -0.298711    2.513351
