17

C       0.011407    1.370288   -0.307651
C       1.452101    1.554282    0.205293
C       1.282599    0.133205    0.766761
C       2.229967   -1.078966    0.481877
C       2.296623   -1.328984    1.991964
N       2.829242   -0.077351    2.584228
C       1.380944   -0.189275    2.262702
O      -0.035817    0.015939    0.197628
H      -0.747226    2.006167    0.164937
H      -0.126195    1.402352   -1.394470
H       2.211045    1.647723   -0.573111
H       1.608846    2.332168    0.953787
H       1.671970   -1.847773   -0.057621
H       3.180593   -0.872629   -0.016821
H       2.399701   -2.275051    2.508283
H       2.918295   -0.231081    3.588789
H       0.615710   -0.051017    3.016946
