18

C      -0.012484    1.459885    0.106434
N       1.298339    0.818800   -0.086732
C       1.636470    0.193225    1.243921
C       0.378747   -0.700332    1.236191
O       0.728832   -2.051182    1.020801
C      -0.265023   -2.787095    0.322832
C      -0.730590   -2.117508   -0.947046
C      -0.566972   -0.808035   -1.150864
C      -0.012908   -0.005347   -0.062464
H      -0.257753    1.898799    1.073853
H      -0.319635    2.058339   -0.747214
H       2.546611   -0.401974    1.162182
H       1.731795    0.918541    2.058773
H      -0.330622   -0.612300    2.073427
H       0.195047   -3.753573    0.089584
H      -1.127857   -2.997964    0.980570
H      -1.195295   -2.753847   -1.694542
H      -0.855262   -0.328142   -2.081084
