16

O       0.024366   -0.015318   -0.035262
C      -0.015261    1.173692    0.041751
C      -1.082655    2.274372    0.003774
C      -1.333311    2.850975    1.409145
N      -0.092487    3.194098    2.124184
C       0.781227    2.125922    2.601926
C       1.163995    2.931656    1.404448
C       0.984499    2.345314    0.016236
O      -0.076373    3.105031   -0.652423
H      -1.993335    2.147556   -0.586155
H      -1.905297    3.777129    1.286111
H      -1.934439    2.160804    2.011544
H       1.258399    2.320598    3.558569
H       0.493154    1.087920    2.446833
H       1.916097    3.712166    1.491248
H       1.900305    2.278470   -0.573387
