23

C       0.046950    1.527752    0.077042
C      -0.012783    0.004928    0.024549
C      -1.439052   -0.477397   -0.225397
O      -1.862646   -0.000166   -1.495925
C       1.003238   -0.704606   -0.927249
C       1.341920   -1.710125    0.206703
C       2.801604   -2.033247    0.443814
O       2.889204   -2.854798    1.600271
C       0.630243   -0.769229    1.217287
H       1.074775    1.875167    0.224399
H      -0.335778    1.963241   -0.850368
H      -0.558499    1.915619    0.905647
H      -1.473068   -1.577957   -0.189453
H      -2.093820   -0.102641    0.579249
H      -2.762694   -0.301755   -1.647408
H       0.598489   -1.102833   -1.859985
H       1.852915   -0.056549   -1.167015
H       0.795164   -2.650943    0.090295
H       3.218291   -2.542256   -0.441793
H       3.368142   -1.096001    0.577757
H       3.817740   -3.036919    1.771266
H       1.343134   -0.148090    1.768772
H      -0.050607   -1.229362    1.939331
