19

C       0.011439    1.494209    0.135948
C       0.028303    0.001227   -0.020314
C       0.890679   -0.787923   -1.052884
C       0.733887   -1.837712    0.089923
C       1.710648   -2.934353    0.401393
O       0.721324   -0.727934    1.031815
C      -0.792877   -2.155193   -0.035141
O      -1.578170   -1.610440    1.028340
C      -1.314537   -0.795604   -0.116644
H       1.027708    1.895339    0.177687
H      -0.512110    1.960791   -0.705158
H      -0.508594    1.771521    1.058331
H       0.467867   -1.009207   -2.038032
H       1.909652   -0.401570   -1.129916
H       2.732693   -2.548294    0.444176
H       1.471647   -3.389793    1.367611
H       1.665900   -3.715287   -0.365029
H      -1.180130   -3.027693   -0.550674
H      -2.163907   -0.463724   -0.704369
