15

O       0.152051    1.437291    0.187616
C       0.037611    0.062375   -0.008645
C      -1.319361   -0.657250    0.011557
C      -2.130659   -0.375454   -1.196057
C      -2.106030    0.884155   -1.891250
C      -2.110939    1.934466   -2.479025
N      -1.008654   -1.374087   -1.302312
C       0.205371   -0.573054   -1.405969
N       1.016076   -0.574329   -2.361289
H      -0.417921    1.874530   -0.458480
H       0.724932   -0.415862    0.697184
H      -1.734920   -1.200684    0.852447
H      -3.089335   -0.885683   -1.237972
H      -2.122030    2.852148   -3.014997
H       1.790720    0.064756   -2.168609
