19

N       0.006396    0.912213    1.093363
C       0.081800    0.066115    0.155756
C      -1.143184   -0.366370   -0.619384
N      -1.165270   -1.809819   -0.837946
C      -1.610618   -2.325561   -2.151289
C      -0.394691   -3.285862   -2.177870
C       0.155619   -2.472303   -0.980679
C       1.237935   -1.452146   -1.288358
O       1.273440   -0.479340   -0.232625
H       0.939229    1.108770    1.463376
H      -2.021609   -0.026201   -0.066620
H      -1.132164    0.181123   -1.581094
H      -2.607734   -2.777364   -2.144370
H      -1.581466   -1.568048   -2.950354
H      -0.638228   -4.317038   -1.919916
H       0.210068   -3.279844   -3.086792
H       0.446260   -3.046382   -0.092719
H       2.236634   -1.894759   -1.317992
H       1.053680   -0.954453   -2.250733
