21

C       0.132095    1.540903    0.121221
C       0.039098    0.033237    0.070421
C       1.254195   -0.802295   -0.299249
C       0.731525   -0.810663    1.106611
O       1.543098   -0.171572    2.076289
C       1.150167   -0.651443    3.356874
C       0.773402   -2.113619    3.106067
C       0.040751   -2.009971    1.754737
O      -1.341320   -1.697530    1.915668
H       1.076006    1.857284    0.572113
H       0.065274    1.974310   -0.882636
H      -0.680479    1.962345    0.722927
H      -0.919288   -0.358258   -0.257816
H       1.124519   -1.686479   -0.915558
H       2.189892   -0.273714   -0.452653
H       1.992182   -0.514068    4.039740
H       0.284917   -0.089976    3.739602
H       1.678201   -2.720809    2.998407
H       0.145855   -2.552323    3.886500
H       0.156407   -2.918024    1.148910
H      -1.771168   -2.466563    2.303950
