15

C      -0.036419    1.536178    0.045036
C       0.031459    0.026108    0.026594
C       1.335200   -0.693067   -0.220679
C       0.697067   -0.724720    1.162804
O       1.261973    0.087627    2.158319
C       0.118543   -1.956722    1.634230
C      -0.334335   -2.992638    2.046006
H       0.845619    1.962525    0.526482
H      -0.098972    1.928323   -0.975741
H      -0.917391    1.883740    0.594386
H      -0.851199   -0.467003   -0.369397
H       1.339287   -1.602641   -0.809930
H       2.229114   -0.082457   -0.297817
H       1.986656   -0.404691    2.559633
H      -0.748575   -3.900302    2.409374
