13

C       0.240754   -0.656473    0.800820
C       0.041297    0.310759    0.114474
C      -0.136082    1.507587   -0.717604
N       1.046412    2.366701   -0.837217
C       1.507183    2.882973    0.451024
C       2.701270    3.713033    0.279286
N       3.656113    4.350102    0.151914
H       0.399413   -1.517530    1.402515
H      -0.434504    1.212950   -1.729465
H      -0.958869    2.114434   -0.318708
H       1.799022    1.843608   -1.274329
H       0.712441    3.504646    0.882320
H       1.734411    2.098898    1.192547
