18

O      -0.139551    1.368181   -0.269386
C       0.029835   -0.003319   -0.054767
C       1.113921   -0.606073   -0.905780
O       2.330659    0.050423   -0.553384
C       3.398988   -0.286927   -1.400841
C       4.590370    0.465298   -0.995853
N       5.541967    1.046697   -0.697574
C      -0.228847   -0.549340    1.328929
C      -1.225759   -0.771954    0.207972
H       0.709997    1.782558   -0.074702
H       1.198458   -1.690294   -0.737524
H       0.895673   -0.434156   -1.971609
H       3.630902   -1.363543   -1.353959
H       3.173664   -0.049600   -2.453493
H       0.357367   -1.391834    1.679534
H      -0.492685    0.175491    2.089837
H      -2.139001   -0.188944    0.228003
H      -1.329920   -1.767630   -0.209688
