18

C      -0.070893    1.397874   -0.077169
N      -0.014841   -0.050590   -0.030742
C       0.584773   -0.597644    0.972427
C       1.232899    0.051770    2.098740
C       1.811294   -0.707654    3.058866
N       1.790647   -2.061982    2.978115
N       1.211891   -2.756441    1.968180
C       0.642445   -2.074203    1.020763
C       0.005840   -2.850332   -0.090212
H       0.928607    1.861080   -0.108708
H      -0.606183    1.710183   -0.978097
H      -0.598496    1.830795    0.788144
H       1.260175    1.129003    2.181430
H       2.314016   -0.300343    3.929305
H       2.215151   -2.641053    3.681771
H       0.127183   -3.921230    0.078296
H      -1.056095   -2.596519   -0.165377
H       0.448509   -2.564955   -1.049546
