18

C       0.006761    1.545440   -0.055218
C      -0.022928    0.046705   -0.003554
C       0.502307   -1.023282   -0.968763
C       1.112793   -0.858977    0.403093
N       0.681565   -1.922619    1.329431
C      -0.246324   -2.812342    0.615197
C      -0.765371   -1.774836    1.558207
C      -1.213978   -0.873380    0.378235
C      -0.671029   -1.961713   -0.613089
H       0.978266    1.909047   -0.406073
H      -0.758356    1.940736   -0.732930
H      -0.170470    1.977827    0.936938
H       1.045178   -0.933217   -1.902552
H       2.117239   -0.476572    0.531209
H      -0.138437   -3.887585    0.704857
H      -1.161488   -1.841474    2.565503
H      -2.235199   -0.505890    0.312474
H      -1.302290   -2.384245   -1.390121
