18

C      -0.052759    1.412865   -0.152846
C       1.287449    0.765200   -0.071069
N       0.067528   -0.021697    0.102006
C      -0.236060   -0.486660    1.394211
C      -0.055605    0.072287    2.864821
C       0.067786   -1.358848    3.368349
C      -1.299100   -0.698325    3.285297
C      -1.478969   -1.240883    1.837384
C      -0.103373   -1.906103    1.921150
H      -0.348223    2.053454    0.675245
H      -0.475336    1.684317   -1.115856
H       1.854995    0.558177   -0.973666
H       1.888343    0.972631    0.811704
H       0.358534    0.981667    3.280985
H       0.605058   -1.735589    4.228575
H      -2.009145   -0.472365    4.069748
H      -2.345560   -1.525613    1.256987
H       0.265073   -2.788123    1.415976
