16

C       0.119202    1.347522    0.380426
N       0.088842   -0.091692    0.255142
C      -1.140350   -0.851308    0.179066
C      -0.574466   -2.271350    0.012997
O       0.768424   -2.100585   -0.443313
C       1.161985   -0.795796   -0.227920
O       2.275696   -0.406054   -0.442882
C      -0.559593   -3.068451    1.318964
O      -1.418276   -2.985839    2.155640
H       1.160394    1.665117    0.309613
H      -0.457670    1.832798   -0.418659
H      -0.291800    1.661002    1.345675
H      -1.740878   -0.780451    1.091068
H      -1.759099   -0.543285   -0.675775
H      -1.121095   -2.860105   -0.732418
H       0.315966   -3.744149    1.419246
