16

N      -0.235095   -1.186681   -0.341885
C      -0.129618   -0.051119   -0.153948
C       0.005656    1.388184    0.053417
C      -0.249806    2.003569    1.463223
N       0.067168    1.026932    2.493998
C       1.502682    0.706063    2.287898
C       2.030134    1.785158    1.340593
C       1.028617    2.848074    1.172915
N       1.396031    1.971418   -0.004747
H      -0.583214    1.903325   -0.710540
H      -1.211407    2.487532    1.625443
H      -0.066233    1.448474    3.407458
H       2.052042    0.726826    3.234009
H       1.612474   -0.296191    1.863508
H       3.091493    2.002065    1.310539
H       1.176514    3.920630    1.178776
