16

N       0.043801   -3.718886    0.209271
C       0.036805   -2.558038    0.161530
C       0.024802   -1.194466    0.102355
C       0.008554    0.012317    0.049990
C       0.007992    1.462737   -0.023990
C       1.414529    2.052497   -0.200545
C       1.545594    3.586823   -0.090001
C       2.516688    3.269174    1.065655
O       2.240054    1.853798    0.961306
H      -0.617789    1.785283   -0.867261
H      -0.438549    1.876783    0.888456
H       1.880207    1.620544   -1.096020
H       1.969618    4.094696   -0.956558
H       0.627435    4.095440    0.212166
H       3.570376    3.491883    0.860136
H       2.254231    3.665047    2.052613
