21

C       0.046620    1.532867    0.090973
C       0.046335    0.017681   -0.031376
C       0.581276   -0.487462   -1.372079
C       0.553420   -2.025600   -1.443087
C       0.902008   -2.700248   -0.125263
C       2.205951   -2.474204    0.612317
O       3.160872   -1.592774    0.107733
C       0.926286   -1.874319    1.145834
O       0.873610   -0.478118    1.035986
H       1.056150    1.930374   -0.055408
H      -0.610648    1.976507   -0.662625
H      -0.301348    1.838101    1.081384
H      -0.976697   -0.363643    0.120004
H      -0.016288   -0.067332   -2.188753
H       1.604858   -0.118450   -1.494858
H      -0.459942   -2.343446   -1.717686
H       1.217621   -2.377638   -2.239973
H       0.492027   -3.700249   -0.010456
H       2.642112   -3.322262    1.134378
H       2.903508   -0.718010    0.434101
H       0.469649   -2.249124    2.058918
