18

C       0.028007    1.558186    0.032153
C       0.037354    0.027197    0.028360
C       0.778726   -0.527471    1.248703
O       2.108006   -0.037507    1.196129
C      -1.420439   -0.534652   -0.023550
C      -2.164152   -0.062297   -1.193164
C      -2.767335    0.327584   -2.154725
C      -1.437488   -2.008150    0.012598
N      -1.438232   -3.162575    0.054970
H       1.052995    1.927715    0.089633
H      -0.443076    1.955530   -0.869444
H      -0.519361    1.942841    0.901564
H       0.559407   -0.329066   -0.866616
H       0.266655   -0.196543    2.169314
H       0.760028   -1.625773    1.233602
H       2.607567   -0.443131    1.910339
H      -1.941781   -0.190460    0.882110
H      -3.306481    0.667997   -3.004466
