21

C      -0.047851    1.522790    0.056071
C      -0.002063    0.027085    0.001660
C       0.009295   -0.737764   -1.097542
C       0.061990   -2.202896   -0.782029
C       1.420848   -2.955958   -0.827766
C       2.480794   -2.206195   -0.074733
C       1.458073   -2.987017    0.703425
C       0.102549   -2.257231    0.783029
C       0.032346   -0.797173    1.281404
H       0.821186    1.926969    0.590994
H      -0.068341    1.965726   -0.943455
H      -0.934391    1.871026    0.602110
H      -0.002913   -0.344283   -2.109594
H      -0.740075   -2.784500   -1.246205
H       1.665854   -3.744833   -1.528939
H       3.467973   -2.656749   -0.102792
H       2.488782   -1.120285   -0.066199
H       1.752292   -3.801982    1.354652
H      -0.671453   -2.891302    1.218319
H       0.896260   -0.528113    1.905159
H      -0.857485   -0.603814    1.895868
