16

N      -0.005518    1.470408   -0.039703
C      -0.005953    0.016422   -0.009562
C       0.955821   -0.540621   -0.975432
N       1.731530   -0.898479   -1.756325
C      -0.059375   -0.673946    1.400125
C      -1.516879   -0.140395    1.528854
C      -1.400227   -0.700931    0.080494
C      -0.659811   -1.923770    0.694475
H       0.925539    1.821882    0.166603
H      -0.233291    1.798588   -0.974251
H       0.736621   -0.646390    2.145041
H      -2.164755   -0.708637    2.198770
H      -1.641650    0.934291    1.633652
H      -2.157984   -0.704647   -0.703763
H      -0.003152   -2.498417    0.039008
H      -1.267518   -2.574164    1.325255
