21

C       0.529940    1.217040   -0.339132
C       0.549235   -0.151936    0.295265
O       1.754662   -0.569401    0.943908
C       0.576835   -0.415295    1.744734
C       0.568108    0.661797    2.805587
O       1.026320    0.206587    4.067969
C       2.414376    0.061552    4.159400
C       2.914651   -0.780444    5.287377
C       3.062171   -1.262461    3.856748
H       0.990550    1.971943    0.300439
H       1.076799    1.198164   -1.287636
H      -0.499940    1.521901   -0.554583
H       0.100619   -0.932642   -0.323524
H       0.150463   -1.358963    2.091753
H       1.157208    1.526222    2.470592
H      -0.464023    0.991452    2.973108
H       2.966523    0.966624    3.903463
H       3.793854   -0.452502    5.830410
H       2.158940   -1.264483    5.895711
H       2.411411   -2.067134    3.536814
H       4.043785   -1.263613    3.396559
