24

C      -0.106703    1.487471   -0.142882
C       0.008683   -0.031087    0.007853
C       0.758680   -0.437515    1.271934
O       0.805664   -1.849183    1.309593
C       1.465414   -2.488254    2.412604
C       0.773032   -2.153001    3.744082
C       1.310440   -3.980776    2.102126
C       2.955831   -2.112974    2.461995
H       0.880408    1.960551   -0.193631
H      -0.647813    1.752796   -1.055804
H      -0.643525    1.933642    0.701821
H      -0.986970   -0.488639    0.032937
H       0.526781   -0.461918   -0.856593
H       1.770095   -0.001645    1.257721
H       0.243018   -0.028526    2.155108
H      -0.299152   -2.360714    3.676259
H       1.190118   -2.761521    4.552572
H       0.904382   -1.103794    4.024475
H       1.777918   -4.216277    1.142002
H       1.777542   -4.592987    2.879029
H       0.251002   -4.244075    2.038132
H       3.108300   -1.063722    2.731312
H       3.475587   -2.720551    3.209399
H       3.423768   -2.291315    1.489082
