17

C       0.045087    1.558643    0.109039
C      -0.028312    0.027233   -0.025256
C       0.685351   -0.500857   -1.237474
C       0.120288   -0.888971   -2.433112
N       1.145736   -1.266679   -3.243415
N       2.343852   -1.159732   -2.676387
C       2.084893   -0.690463   -1.446979
C       3.167913   -0.441219   -0.483464
O       4.347526   -0.595799   -0.692222
H       1.081507    1.899450    0.194558
H      -0.393165    2.048601   -0.765790
H      -0.496767    1.896317    0.997816
H       0.382122   -0.435135    0.879631
H      -1.078936   -0.280522   -0.070579
H      -0.907069   -0.929943   -2.759860
H       1.085731   -1.612788   -4.187614
H       2.806178   -0.082334    0.506480
