15

O      -0.031607    1.418027   -0.015983
C       0.037867   -0.000760   -0.064566
C      -1.390031   -0.538538   -0.085311
O      -2.099006   -0.026514   -1.178927
C      -1.630438   -2.058034    0.139460
N      -2.225552   -1.704786    1.437585
C      -2.052701   -0.354052    1.318055
O      -2.258086    0.589996    2.042340
H      -0.502939    1.647573    0.798298
H       0.557726   -0.258296   -0.993236
H       0.604300   -0.417645    0.781123
H      -1.815814    0.895457   -1.260449
H      -2.333949   -2.487784   -0.577411
H      -0.731154   -2.678254    0.212091
H      -2.544578   -2.275986    2.206375
