22

C       0.380720    1.646262   -0.294203
C       0.023731    0.193013    0.042312
C       0.456675   -0.776869   -1.062045
N       0.599193   -0.203748    1.324451
C      -0.143603   -0.431499    2.446075
O      -1.362812   -0.370197    2.461068
C       0.671085   -0.755941    3.694238
C      -0.134044   -1.566393    4.701237
O       0.683776   -1.742034    5.849824
H       1.464817    1.771139   -0.404369
H      -0.086080    1.950816   -1.236285
H       0.037573    2.322207    0.493693
H      -1.056412    0.115909    0.190632
H       1.544589   -0.755896   -1.202304
H       0.164702   -1.801796   -0.817570
H      -0.003980   -0.504966   -2.016713
H       1.603448   -0.258424    1.395302
H       1.593262   -1.289181    3.437410
H       0.975220    0.186637    4.167061
H      -1.062256   -1.028997    4.931228
H      -0.418559   -2.533247    4.258386
H       0.165915   -2.206202    6.513638
