16

C       0.126723    1.516768   -0.164079
C       0.048437    0.027322   -0.035519
C      -0.022476   -0.915481   -1.020327
C      -0.008964   -0.826643   -2.512170
C       1.385854   -0.450804   -3.003473
O       1.641669    0.574941   -3.575864
O      -0.078276   -2.150868   -0.482057
N      -0.055421   -2.047510    0.903745
C       0.017630   -0.763517    1.149489
H       0.950502    1.923189    0.431639
H       0.292512    1.816444   -1.201759
H      -0.793557    1.999900    0.183198
H      -0.281149   -1.804969   -2.923334
H      -0.715816   -0.076014   -2.874425
H       2.172446   -1.199780   -2.765889
H       0.049107   -0.429218    2.177853
