18

C      -0.015130    1.553734   -0.236616
C      -0.034202    0.058027   -0.019002
C       1.144552   -0.745926   -0.369192
O       0.856331   -0.426308    0.996316
C      -1.421293   -0.585750   -0.040174
C      -1.474515   -2.050808    0.469799
O      -2.463943   -2.021561    1.528663
C      -2.835068   -0.728578    1.635218
N      -2.354917    0.140841    0.849372
H       1.009732    1.930104   -0.195206
H      -0.442935    1.805507   -1.213113
H      -0.614177    2.052360    0.528070
H       1.041069   -1.797863   -0.635682
H       2.021166   -0.254242   -0.788519
H      -1.798493   -0.502466   -1.067714
H      -1.806803   -2.768160   -0.282941
H      -0.528851   -2.372854    0.910209
H      -3.556665   -0.533572    2.421056
