17

C      -0.081018    1.489593   -0.020007
O       1.207473    2.082503   -0.040394
C       1.878779    2.038021   -1.255396
C       3.155776    1.272075   -1.387656
O       3.154777    0.123875   -0.550826
C       2.008534   -0.433402   -1.286407
C       0.833329   -0.846025   -0.451008
C      -0.074699   -0.018119    0.066803
C       1.911268    0.825749   -2.151420
H      -0.574092    1.894038    0.870409
H      -0.676654    1.817812   -0.887860
H       1.862404    2.976872   -1.812157
H       4.112700    1.678054   -1.695130
H       2.374562   -1.284989   -1.870368
H       0.721490   -1.913209   -0.276137
H      -0.905906   -0.443012    0.627326
H       1.649291    0.844899   -3.201108
