14

C      -0.097203    1.440228   -0.068245
N       0.080959   -0.000993   -0.013438
C       0.616439   -0.711916   -1.023376
N       0.645295   -2.014518   -1.151318
C       1.344281   -2.151535   -2.327437
N       1.723998   -1.031162   -2.903888
O       1.224277   -0.047200   -2.016763
C       1.649440   -3.411790   -2.905788
C       1.903040   -4.482284   -3.388412
H       0.827512    1.912540   -0.406024
H      -0.907243    1.741717   -0.744527
H      -0.322762    1.801776    0.936438
H      -0.486718   -0.540214    0.619587
H       2.128972   -5.427697   -3.816750
