14

N      -0.210468    1.381661   -0.054752
C       0.146903    0.044510    0.054553
O       1.259148   -0.340012    0.310655
N      -0.965121   -0.794629   -0.119914
C      -0.935777   -2.172043   -0.087709
N       0.018495   -2.999025   -0.358639
C      -0.573442   -4.248100   -0.179541
C      -1.865931   -4.096960    0.175433
O      -2.121027   -2.742371    0.245701
H       0.593435    1.990753   -0.083809
H      -0.933560    1.624651   -0.715520
H      -1.880783   -0.393291    0.010373
H      -0.015283   -5.158442   -0.329742
H      -2.691137   -4.749605    0.397230
