21

O       0.246440    1.428220   -0.127190
C       0.160536    0.024163   -0.054048
C       0.291678   -0.620928    1.415855
C      -1.265845   -0.563601    1.474620
C      -2.604654   -1.381922    1.400625
C      -2.844649   -0.395521    0.155279
C      -3.003145    0.955416    0.859598
C      -1.827605    0.830867    1.873188
C      -1.291483   -0.577341   -0.035173
H       1.163989    1.678122    0.023512
H       0.815554   -0.436337   -0.807120
H       0.705888   -1.630790    1.353344
H       0.851987   -0.043852    2.158831
H      -2.478198   -2.421539    1.093019
H      -3.317610   -1.309175    2.229469
H      -3.557674   -0.651208   -0.631043
H      -2.876139    1.798072    0.175358
H      -3.981072    1.051673    1.341001
H      -2.164763    0.820707    2.915052
H      -1.098258    1.629645    1.755382
H      -1.138638   -1.606271   -0.381510
