14

O      -0.093420    1.381821    0.045613
N       0.061375   -0.018644   -0.018261
C      -1.048865   -0.603066   -0.053189
C      -2.564576   -0.481351    0.004811
C      -2.644718   -1.556590   -1.109430
C      -1.576029   -2.036230   -0.073022
O      -2.528556   -1.585820    1.006219
C      -0.902814   -3.288266    0.040328
C      -0.327958   -4.340588    0.112356
H       0.821854    1.680215    0.083717
H      -3.204296    0.371117    0.209126
H      -3.561443   -2.147343   -1.088381
H      -2.301081   -1.301856   -2.114214
H       0.183442   -5.269201    0.183028
