18

O      -0.081547    1.430855    0.062943
C       0.030528    0.019662    0.033546
C       0.686833   -0.513263   -1.253064
C      -0.087984   -0.102376   -2.507520
C       0.596328   -0.592736   -3.799087
C      -0.133875   -0.214694   -5.002568
C      -0.755736    0.108532   -5.978809
C       0.749502   -0.478816    1.225384
N       1.343143   -0.850651    2.144455
H       0.806758    1.804986    0.098470
H      -1.000737   -0.347998    0.089089
H       1.718885   -0.140086   -1.298537
H       0.755879   -1.605501   -1.181444
H      -1.105222   -0.509104   -2.465867
H      -0.189663    0.986007   -2.536991
H       1.616666   -0.189648   -3.848425
H       0.705344   -1.684936   -3.765641
H      -1.296471    0.388558   -6.848625
