17

O      -0.122475    1.440688    0.098502
C       0.023918    0.034177    0.001815
C       0.800042   -0.536471    1.204988
C       0.814468   -2.057951    1.199631
O       1.826048   -2.708646    1.288852
C      -0.559979   -2.707540    1.052031
C      -1.396468   -2.065970   -0.056721
O      -2.011269   -2.729735   -0.853702
C      -1.393251   -0.544942   -0.072390
H       0.752826    1.839977    0.056168
H       0.561777   -0.231655   -0.922508
H       1.833081   -0.179079    1.220945
H       0.299348   -0.187374    2.118387
H      -0.463882   -3.780576    0.887330
H      -1.099617   -2.540286    1.996363
H      -1.946538   -0.182512    0.805517
H      -1.911146   -0.195452   -0.966763
