17

C       0.901491    1.026035    0.247465
C       0.408338   -0.337078    0.115879
C       0.004212   -1.467019    0.015743
C      -0.505803   -2.827177   -0.148840
C      -2.034940   -2.878814   -0.285156
C       0.183698   -3.484379   -1.363239
O      -0.430848   -3.883437   -2.324788
C       1.626839   -3.615720   -1.268764
C       2.817632   -3.763792   -1.176947
H       1.303466    1.210016    1.249801
H       1.701252    1.227764   -0.473564
H       0.103865    1.755570    0.069628
H      -0.197012   -3.420432    0.725430
H      -2.358600   -2.324334   -1.168012
H      -2.373450   -3.912182   -0.390954
H      -2.500970   -2.437366    0.598607
H       3.870578   -3.891691   -1.107290
