12

O       0.106427    1.296619    0.088892
C       0.069792   -0.036271    0.049035
N       0.075697   -0.609231   -1.156034
C       0.038304   -1.946955   -1.161284
C      -0.004143   -2.701612    0.007415
C      -0.005412   -1.973662    1.196165
N       0.031062   -0.646063    1.236549
C       0.043602   -2.594979   -2.448350
N       0.046719   -3.145079   -3.465100
H       0.131777    1.605171   -0.827596
H      -0.034078   -3.782033   -0.011170
H      -0.037177   -2.483009    2.156229
