21

O       0.439310    1.219857    0.591938
C       0.055286   -0.044339    0.078744
C      -1.395184    0.002827   -0.403208
C      -1.550740   -1.261453   -1.266779
C      -2.519956   -1.124762   -2.471442
C      -1.602811   -1.067322   -3.668958
C      -0.327492   -1.285221   -3.353541
C      -0.118650   -1.505495   -1.876546
C       0.826849   -0.492120   -1.177046
H       1.350383    1.155065    0.894229
H       0.150235   -0.817846    0.860084
H      -2.115158    0.062513    0.417421
H      -1.515183    0.905176   -1.016023
H      -1.843108   -2.102017   -0.631466
H      -3.208066   -1.977380   -2.544897
H      -3.154256   -0.232189   -2.390601
H      -1.972049   -0.880246   -4.672108
H       0.495418   -1.301652   -4.061124
H       0.228228   -2.528527   -1.684865
H       0.979585    0.392376   -1.806109
H       1.811821   -0.911521   -0.947776
