13

C      -0.162513    1.422782    0.011574
C       0.099477   -0.054043    0.001056
N       1.267039   -0.540769   -0.012812
O      -1.098556   -0.727149    0.008787
C      -1.043587   -2.141625    0.000486
C      -2.413929   -2.654689    0.010971
N      -3.480397   -3.095753    0.019138
H       0.784793    1.959293    0.005674
H      -0.756585    1.706020   -0.862475
H      -0.740201    1.696388    0.899557
H       1.298441   -1.558459   -0.018702
H      -0.528298   -2.515115   -0.895172
H      -0.511013   -2.524881    0.881805
