20

C       0.050854    1.619260   -0.222013
C       0.081509    0.091165   -0.158013
C      -1.300354   -0.512261    0.164971
C      -1.297952   -2.002391    0.209998
C      -1.447916   -2.920352    1.210010
C      -1.696735   -2.703865    2.669655
C      -1.309147   -4.160681    0.521313
N      -1.096406   -4.010641   -0.760635
O      -1.088315   -2.634474   -0.964791
H       1.040723    2.024221   -0.452460
H      -0.641107    1.969889   -0.995669
H      -0.272243    2.051899    0.731586
H       0.430059   -0.318995   -1.111895
H       0.800512   -0.238709    0.601305
H      -1.655350   -0.132982    1.129164
H      -2.023980   -0.178808   -0.589863
H      -2.615718   -3.200941    2.999394
H      -0.878471   -3.099050    3.282098
H      -1.796270   -1.640469    2.902591
H      -1.361122   -5.161609    0.928908
