16

C       0.111066    1.493768    0.224545
O       1.521524    1.431474   -0.146277
C       1.309224    0.229100   -0.932330
C       1.483871   -1.176859   -0.331344
O       0.697675   -0.756751    0.817152
C      -0.034636    0.043994   -0.206563
C      -0.802065   -1.047592   -0.940091
N      -0.234529   -1.291302   -2.289680
C       0.363089   -1.966233   -1.111898
H      -0.033221    1.697136    1.288431
H      -0.430314    2.220752   -0.393305
H       1.444619    0.400729   -1.996281
H       2.410031   -1.700279   -0.089422
H      -1.796624   -1.383156   -0.675215
H      -0.824661   -1.961407   -2.780646
H       0.284933   -3.040755   -0.997922
