17

C       0.223125    1.309784    0.956599
C      -0.117043    0.267982   -0.107436
O       0.757200   -0.868093   -0.048008
C      -1.545847   -0.171238   -0.044757
C      -2.667380    0.274125    0.597553
N      -3.770509   -0.506539    0.284965
C      -3.303393   -1.411510   -0.533241
O      -3.991960   -2.415067   -1.101923
N      -1.980892   -1.269647   -0.788121
H       1.280655    1.574443    0.885348
H      -0.374443    2.216628    0.823533
H       0.025584    0.918153    1.960356
H       0.098101    0.693999   -1.097012
H       0.612669   -1.291150    0.806975
H      -2.759509    1.119720    1.261291
H      -4.898734   -2.332915   -0.780417
H      -1.390395   -1.889112   -1.317460
