16

C       0.053455    1.519997   -0.006442
O       1.207074    0.679129    0.003535
C      -0.090697    0.056165    0.002219
C      -0.491010   -0.751012    1.189760
C      -0.979559   -1.937951    0.812002
C      -1.028692   -2.073292   -0.673584
C      -1.943095   -1.087727   -1.381388
C      -0.481294   -0.761384   -1.206662
H      -0.119824    2.089345    0.906780
H      -0.124754    2.067235   -0.931821
H      -0.399057   -0.381749    2.203539
H      -1.343707   -2.707700    1.482469
H      -0.821358   -3.027585   -1.144028
H      -2.270920   -1.338513   -2.385158
H      -2.675048   -0.557859   -0.780650
H       0.163452   -0.715085   -2.075519
