14

C       0.040222    1.489219    0.123104
O       1.327117    2.117533   -0.069707
C       2.147820    1.452059   -0.895671
N       3.219653    1.970954   -1.468337
N       3.724031    0.903999   -2.114577
N       3.063005   -0.242378   -2.003192
C       2.038784    0.082868   -1.213667
C       0.965197   -0.701741   -0.651403
C       0.030788   -0.020073    0.023589
H      -0.288311    1.814403    1.114286
H      -0.665140    1.917748   -0.608532
H       4.551773    0.984124   -2.679913
H       0.948533   -1.780444   -0.752110
H      -0.808560   -0.519888    0.495970
